<?xml version="1.0" encoding="UTF-8"?>

<!-- generated on 2023-12-15 03:09:55 by Eclipse SUMO netedit Version 1.19.0
<configuration xmlns:xsi="http://www.w3.org/2001/XMLSchema-instance" xsi:noNamespaceSchemaLocation="http://sumo.dlr.de/xsd/neteditConfiguration.xsd">

    <input>
        <sumo-net-file value="C:\Users\PC\Downloads\Sincronizacion-de-semaforos-main\InstanciaMediana.net.xml"/>
    </input>

    <output>
        <output-file value="C:\Users\PC\Downloads\Sincronizacion-de-semaforos-main\InstanciaMediana.net.xml"/>
    </output>

    <processing>
        <geometry.min-radius.fix.railways value="false"/>
        <geometry.max-grade.fix value="false"/>
        <offset.disable-normalization value="true"/>
        <lefthand value="0"/>
    </processing>

    <junctions>
        <no-turnarounds value="true"/>
        <junctions.corner-detail value="5"/>
        <junctions.limit-turn-speed value="5.50"/>
        <rectangular-lane-cut value="0"/>
    </junctions>

    <pedestrian>
        <walkingareas value="0"/>
    </pedestrian>

</configuration>
-->

<net version="1.16" junctionCornerDetail="5" limitTurnSpeed="5.50" xmlns:xsi="http://www.w3.org/2001/XMLSchema-instance" xsi:noNamespaceSchemaLocation="http://sumo.dlr.de/xsd/net_file.xsd">

    <location netOffset="0.00,0.00" convBoundary="573715.96,-3863227.82,574463.08,-3862104.00" origBoundary="-56.199827,-34.909212,-56.184937,-34.898649" projParameter="+proj=utm +zone=21 +ellps=WGS84 +datum=WGS84 +units=m +no_defs"/>

    <type id="highway.footway" priority="1" numLanes="1" speed="2.78" allow="pedestrian" oneway="1" width="2.00"/>
    <type id="highway.pedestrian" priority="1" numLanes="1" speed="2.78" allow="pedestrian" oneway="1" width="2.00"/>
    <type id="highway.residential" priority="3" numLanes="1" speed="13.89" disallow="tram rail_urban rail rail_electric rail_fast ship" oneway="0"/>
    <type id="highway.secondary" priority="11" numLanes="1" speed="27.78" disallow="tram rail_urban rail rail_electric rail_fast ship" oneway="0"/>
    <type id="highway.service" priority="1" numLanes="1" speed="5.56" allow="pedestrian delivery bicycle" oneway="0"/>
    <type id="highway.steps" priority="1" numLanes="1" speed="1.39" allow="pedestrian" oneway="1" width="2.00"/>
    <type id="highway.tertiary" priority="10" numLanes="1" speed="22.22" disallow="tram rail_urban rail rail_electric rail_fast ship" oneway="0"/>

    <edge id=":11296502611_0" function="internal">
        <lane id=":11296502611_0_0" index="0" disallow="tram rail_urban rail rail_electric rail_fast ship" speed="12.50" length="0.30" shape="574413.30,-3862938.15 574413.32,-3862938.45"/>
    </edge>
    <edge id=":1893973259_0" function="internal">
        <lane id=":1893973259_0_0" index="0" disallow="tram rail_urban rail rail_electric rail_fast ship" speed="12.50" length="5.27" shape="574369.90,-3862863.13 574364.64,-3862863.56"/>
        <lane id=":1893973259_0_1" index="1" disallow="tram rail_urban rail rail_electric rail_fast ship" speed="12.50" length="5.27" shape="574370.15,-3862866.32 574364.91,-3862866.75"/>
    </edge>
    <edge id=":1893973259_2" function="internal">
        <lane id=":1893973259_2_0" index="0" disallow="tram rail_urban rail rail_electric rail_fast ship" speed="12.50" length="5.23" shape="574365.44,-3862873.13 574370.65,-3862872.70"/>
        <lane id=":1893973259_2_1" index="1" disallow="tram rail_urban rail rail_electric rail_fast ship" speed="12.50" length="5.23" shape="574365.18,-3862869.94 574370.40,-3862869.51"/>
    </edge>
    <edge id=":1893973264_0" function="internal">
        <lane id=":1893973264_0_0" index="0" disallow="tram rail_urban rail rail_electric rail_fast ship" speed="12.50" length="4.88" shape="573875.89,-3862897.34 573874.37,-3862897.37 573873.33,-3862897.46 573872.30,-3862897.62 573870.80,-3862897.87"/>
        <lane id=":1893973264_0_1" index="1" disallow="tram rail_urban rail rail_electric rail_fast ship" speed="12.50" length="4.88" shape="573875.91,-3862900.54 573874.53,-3862900.57 573873.59,-3862900.65 573872.66,-3862900.80 573871.30,-3862901.03"/>
    </edge>
    <edge id=":1893973274_0" function="internal">
        <lane id=":1893973274_0_0" index="0" disallow="tram rail_urban rail rail_electric rail_fast ship" speed="12.50" length="0.54" shape="573905.36,-3862899.67 573905.29,-3862899.68 573905.23,-3862899.68 573905.18,-3862899.68 573905.10,-3862899.68"/>
        <lane id=":1893973274_0_1" index="1" disallow="tram rail_urban rail rail_electric rail_fast ship" speed="12.50" length="0.54" shape="573905.66,-3862902.86 573905.42,-3862902.88 573905.26,-3862902.89 573905.09,-3862902.89 573904.85,-3862902.87"/>
    </edge>
    <edge id=":1893973274_2" function="internal">
        <lane id=":1893973274_2_0" index="0" disallow="tram rail_urban rail rail_electric rail_fast ship" speed="12.50" length="1.62" shape="573904.36,-3862909.31 573906.25,-3862909.23"/>
        <lane id=":1893973274_2_1" index="1" disallow="tram rail_urban rail rail_electric rail_fast ship" speed="12.50" length="1.62" shape="573904.61,-3862906.07 573905.01,-3862906.04 573905.28,-3862906.05 573905.56,-3862906.07 573905.96,-3862906.05"/>
    </edge>
    <edge id=":1893981273_0" function="internal">
        <lane id=":1893981273_0_0" index="0" disallow="tram rail_urban rail rail_electric rail_fast ship" speed="5.26" length="7.62" shape="573825.18,-3862383.47 573823.54,-3862383.26 573822.73,-3862382.23 573822.76,-3862380.38 573823.63,-3862377.71"/>
    </edge>
    <edge id=":1893981273_1" function="internal">
        <lane id=":1893981273_1_0" index="0" disallow="tram rail_urban rail rail_electric rail_fast ship" speed="12.50" length="15.74" shape="573825.48,-3862386.66 573820.43,-3862386.87 573816.57,-3862386.62 573813.23,-3862386.27 573809.77,-3862386.19"/>
    </edge>
    <edge id=":1893981273_2" function="internal">
        <lane id=":1893981273_2_0" index="0" disallow="tram rail_urban rail rail_electric rail_fast ship" speed="12.50" length="18.30" shape="573816.46,-3862394.60 573823.63,-3862377.71"/>
        <lane id=":1893981273_2_1" index="1" disallow="tram rail_urban rail rail_electric rail_fast ship" speed="12.50" length="18.30" shape="573813.52,-3862393.33 573820.67,-3862376.48"/>
        <lane id=":1893981273_2_2" index="2" disallow="tram rail_urban rail rail_electric rail_fast ship" speed="12.50" length="18.30" shape="573810.59,-3862392.05 573817.72,-3862375.25"/>
    </edge>
    <edge id=":1893981274_0" function="internal">
        <lane id=":1893981274_0_0" index="0" disallow="tram rail_urban rail rail_electric rail_fast ship" speed="9.61" length="13.37" shape="573800.72,-3862378.09 573798.83,-3862382.01 573796.74,-3862384.87 573794.47,-3862386.68 573792.00,-3862387.43"/>
    </edge>
    <edge id=":1893981274_1" function="internal">
        <lane id=":1893981274_1_0" index="0" disallow="tram rail_urban rail rail_electric rail_fast ship" speed="12.50" length="14.77" shape="573800.72,-3862378.09 573795.11,-3862391.69"/>
        <lane id=":1893981274_1_1" index="1" disallow="tram rail_urban rail rail_electric rail_fast ship" speed="12.50" length="14.77" shape="573803.69,-3862379.30 573798.06,-3862392.93"/>
        <lane id=":1893981274_1_2" index="2" disallow="tram rail_urban rail rail_electric rail_fast ship" speed="12.50" length="14.77" shape="573806.65,-3862380.50 573801.01,-3862394.16"/>
        <lane id=":1893981274_1_3" index="3" disallow="tram rail_urban rail rail_electric rail_fast ship" speed="12.50" length="14.77" shape="573809.62,-3862381.70 573803.96,-3862395.40"/>
    </edge>
    <edge id=":1893981274_5" function="internal">
        <lane id=":1893981274_5_0" index="0" disallow="tram rail_urban rail rail_electric rail_fast ship" speed="12.50" length="17.61" shape="573809.57,-3862386.20 573792.00,-3862387.43"/>
    </edge>
    <edge id=":1893981274_6" function="internal">
        <lane id=":1893981274_6_0" index="0" disallow="tram rail_urban rail rail_electric rail_fast ship" speed="9.09" length="12.33" shape="573809.57,-3862386.20 573807.04,-3862386.78 573804.77,-3862388.31 573802.76,-3862390.77 573801.01,-3862394.16"/>
        <lane id=":1893981274_6_1" index="1" disallow="tram rail_urban rail rail_electric rail_fast ship" speed="8.60" length="10.97" shape="573809.57,-3862386.20 573808.55,-3862386.80 573807.28,-3862388.54 573805.75,-3862391.41 573803.96,-3862395.40"/>
    </edge>
    <edge id=":1893981275_0" function="internal">
        <lane id=":1893981275_0_0" index="0" disallow="tram rail_urban rail rail_electric rail_fast ship" speed="9.70" length="13.67" shape="573769.70,-3862502.89 573771.53,-3862499.48 573773.80,-3862496.96 573776.52,-3862495.35 573779.69,-3862494.64"/>
    </edge>
    <edge id=":1893981275_1" function="internal">
        <lane id=":1893981275_1_0" index="0" disallow="tram rail_urban rail rail_electric rail_fast ship" speed="12.50" length="17.14" shape="573769.70,-3862502.89 573776.38,-3862487.15"/>
        <lane id=":1893981275_1_1" index="1" disallow="tram rail_urban rail rail_electric rail_fast ship" speed="12.50" length="17.14" shape="573766.74,-3862501.66 573773.44,-3862485.88"/>
        <lane id=":1893981275_1_2" index="2" disallow="tram rail_urban rail rail_electric rail_fast ship" speed="12.50" length="17.14" shape="573763.79,-3862500.43 573770.50,-3862484.61"/>
    </edge>
    <edge id=":1893981275_4" function="internal">
        <lane id=":1893981275_4_0" index="0" disallow="tram rail_urban rail rail_electric rail_fast ship" speed="12.50" length="14.32" shape="573765.42,-3862495.77 573779.69,-3862494.64"/>
        <lane id=":1893981275_4_1" index="1" disallow="tram rail_urban rail rail_electric rail_fast ship" speed="12.50" length="14.32" shape="573765.15,-3862492.58 573779.44,-3862491.45"/>
    </edge>
    <edge id=":1893981275_6" function="internal">
        <lane id=":1893981275_6_0" index="0" disallow="tram rail_urban rail rail_electric rail_fast ship" speed="8.94" length="11.22" shape="573765.15,-3862492.58 573767.77,-3862491.99 573770.02,-3862490.67 573771.91,-3862488.64 573773.44,-3862485.88"/>
        <lane id=":1893981275_6_1" index="1" disallow="tram rail_urban rail rail_electric rail_fast ship" speed="8.39" length="9.81" shape="573765.15,-3862492.58 573766.22,-3862492.02 573767.48,-3862490.51 573768.90,-3862488.04 573770.50,-3862484.61"/>
    </edge>
    <edge id=":1893981276_0" function="internal">
        <lane id=":1893981276_0_0" index="0" disallow="tram rail_urban rail rail_electric rail_fast ship" speed="12.50" length="21.19" shape="573756.79,-3862482.92 573750.02,-3862502.97"/>
        <lane id=":1893981276_0_1" index="1" disallow="tram rail_urban rail rail_electric rail_fast ship" speed="12.50" length="21.19" shape="573759.74,-3862484.15 573752.96,-3862504.23"/>
        <lane id=":1893981276_0_2" index="2" disallow="tram rail_urban rail rail_electric rail_fast ship" speed="12.50" length="21.19" shape="573762.70,-3862485.39 573755.90,-3862505.49"/>
    </edge>
    <edge id=":1893981276_3" function="internal">
        <lane id=":1893981276_3_0" index="0" disallow="tram rail_urban rail rail_electric rail_fast ship" speed="5.71" length="9.21" shape="573746.01,-3862497.40 573748.75,-3862497.54 573750.33,-3862498.51 573750.76,-3862500.32 573750.02,-3862502.97"/>
    </edge>
    <edge id=":1893981276_4" function="internal">
        <lane id=":1893981276_4_0" index="0" disallow="tram rail_urban rail rail_electric rail_fast ship" speed="12.50" length="19.28" shape="573746.01,-3862497.40 573765.22,-3862495.79"/>
        <lane id=":1893981276_4_1" index="1" disallow="tram rail_urban rail rail_electric rail_fast ship" speed="12.50" length="19.28" shape="573745.74,-3862494.22 573764.95,-3862492.60"/>
    </edge>
    <edge id=":1894788773_0" function="internal">
        <lane id=":1894788773_0_0" index="0" disallow="tram rail_urban rail rail_electric rail_fast ship" speed="12.50" length="14.40" shape="573735.95,-3862489.37 573737.01,-3862503.73"/>
        <lane id=":1894788773_0_1" index="1" disallow="tram rail_urban rail rail_electric rail_fast ship" speed="12.50" length="14.40" shape="573739.14,-3862489.14 573740.20,-3862503.50"/>
    </edge>
    <edge id=":1894788773_2" function="internal">
        <lane id=":1894788773_2_0" index="0" disallow="tram rail_urban rail rail_electric rail_fast ship" speed="7.30" length="11.75" shape="573739.14,-3862489.14 573739.78,-3862492.95 573741.04,-3862495.61 573742.92,-3862497.11 573745.42,-3862497.45"/>
        <lane id=":1894788773_2_1" index="1" disallow="tram rail_urban rail rail_electric rail_fast ship" speed="6.48" length="9.03" shape="573739.14,-3862489.14 573739.67,-3862491.56 573740.85,-3862493.22 573742.68,-3862494.12 573745.15,-3862494.27"/>
    </edge>
    <edge id=":1896395902_0" function="internal">
        <lane id=":1896395902_0_0" index="0" allow="pedestrian delivery bicycle" speed="5.06" length="5.02" shape="574073.53,-3862751.34 574072.15,-3862751.24 574071.13,-3862750.73 574070.47,-3862749.81 574070.17,-3862748.47"/>
    </edge>
    <edge id=":1896395902_1" function="internal">
        <lane id=":1896395902_1_0" index="0" allow="pedestrian delivery bicycle" speed="5.03" length="5.01" shape="574070.88,-3862757.85 574070.97,-3862756.48 574071.48,-3862755.47 574072.41,-3862754.82 574073.75,-3862754.53"/>
    </edge>
    <edge id=":1896395902_2" function="internal">
        <lane id=":1896395902_2_0" index="0" disallow="tram rail_urban rail rail_electric rail_fast ship" speed="12.50" length="9.40" shape="574070.88,-3862757.85 574070.17,-3862748.47"/>
        <lane id=":1896395902_2_1" index="1" disallow="tram rail_urban rail rail_electric rail_fast ship" speed="12.50" length="9.40" shape="574067.69,-3862758.09 574066.98,-3862748.71"/>
    </edge>
    <edge id=":1896395907_0" function="internal">
        <lane id=":1896395907_0_0" index="0" allow="pedestrian delivery bicycle" speed="5.18" length="5.17" shape="574113.50,-3862777.84 574112.15,-3862777.74 574111.13,-3862777.20 574110.44,-3862776.22 574110.08,-3862774.79"/>
    </edge>
    <edge id=":1896395907_1" function="internal">
        <lane id=":1896395907_1_0" index="0" disallow="tram rail_urban rail rail_electric rail_fast ship" speed="12.50" length="9.41" shape="574113.50,-3862777.84 574104.12,-3862778.57"/>
        <lane id=":1896395907_1_1" index="1" disallow="tram rail_urban rail rail_electric rail_fast ship" speed="12.50" length="9.41" shape="574113.75,-3862781.03 574104.37,-3862781.76"/>
    </edge>
    <edge id=":1896395907_3" function="internal">
        <lane id=":1896395907_3_0" index="0" allow="pedestrian delivery bicycle" speed="5.00" length="5.05" shape="574106.90,-3862775.18 574106.87,-3862776.57 574106.40,-3862777.60 574105.48,-3862778.26 574104.12,-3862778.57"/>
    </edge>
    <edge id=":1930002969_0" function="internal">
        <lane id=":1930002969_0_0" index="0" disallow="tram rail_urban rail rail_electric rail_fast ship" speed="12.50" length="5.00" shape="574366.29,-3862880.55 574371.28,-3862880.19"/>
    </edge>
    <edge id=":2138365557_0" function="internal">
        <lane id=":2138365557_0_0" index="0" disallow="tram rail_urban rail rail_electric rail_fast ship" speed="13.20" length="8.70" shape="574438.65,-3862877.93 574440.97,-3862878.77 574442.28,-3862880.09 574443.59,-3862881.44 574445.89,-3862882.41"/>
    </edge>
    <edge id=":2535842540_0" function="internal">
        <lane id=":2535842540_0_0" index="0" allow="pedestrian delivery bicycle" speed="6.12" length="7.77" shape="573721.67,-3862200.76 573720.34,-3862201.27 573719.45,-3862202.52 573719.00,-3862204.53 573718.99,-3862207.28"/>
    </edge>
    <edge id=":2535842540_1" function="internal">
        <lane id=":2535842540_1_0" index="0" disallow="tram rail_urban rail rail_electric rail_fast ship" speed="12.50" length="9.38" shape="573715.15,-3862198.14 573715.79,-3862207.50"/>
        <lane id=":2535842540_1_1" index="1" disallow="tram rail_urban rail rail_electric rail_fast ship" speed="12.50" length="9.38" shape="573718.34,-3862197.91 573718.99,-3862207.28"/>
    </edge>
    <edge id=":2535842540_3" function="internal">
        <lane id=":2535842540_3_0" index="0" allow="pedestrian delivery bicycle" speed="6.07" length="7.79" shape="573718.34,-3862197.91 573718.73,-3862200.65 573719.46,-3862202.57 573720.53,-3862203.67 573721.93,-3862203.95"/>
    </edge>
    <edge id=":2535842542_0" function="internal">
        <lane id=":2535842542_0_0" index="0" disallow="tram rail_urban rail rail_electric rail_fast ship" speed="12.50" length="19.46" shape="573826.73,-3862175.60 573807.49,-3862178.59"/>
        <lane id=":2535842542_0_1" index="1" disallow="tram rail_urban rail rail_electric rail_fast ship" speed="12.50" length="19.46" shape="573826.94,-3862178.79 573807.73,-3862181.78"/>
    </edge>
    <edge id=":2535842542_2" function="internal">
        <lane id=":2535842542_2_0" index="0" disallow="tram rail_urban rail rail_electric rail_fast ship" speed="8.92" length="18.08" shape="573827.16,-3862181.99 573822.72,-3862183.15 573818.45,-3862185.70 573815.31,-3862189.10 573814.25,-3862192.83"/>
    </edge>
    <edge id=":2535842542_3" function="internal">
        <lane id=":2535842542_3_0" index="0" disallow="tram rail_urban rail rail_electric rail_fast ship" speed="5.21" length="9.75" shape="573825.25,-3862189.48 573823.32,-3862188.60 573820.66,-3862189.12 573818.34,-3862190.58 573817.44,-3862192.57"/>
        <lane id=":2535842542_3_1" index="1" disallow="tram rail_urban rail rail_electric rail_fast ship" speed="3.23" length="2.59" shape="573822.63,-3862191.31 573822.13,-3862191.10 573821.45,-3862191.30 573820.86,-3862191.75 573820.63,-3862192.30"/>
    </edge>
    <edge id=":2535842544_0" function="internal">
        <lane id=":2535842544_0_0" index="0" disallow="tram rail_urban rail rail_electric rail_fast ship" speed="12.50" length="9.40" shape="573781.06,-3862180.60 573771.69,-3862181.32"/>
        <lane id=":2535842544_0_1" index="1" disallow="tram rail_urban rail rail_electric rail_fast ship" speed="12.50" length="9.40" shape="573781.31,-3862183.79 573771.93,-3862184.51"/>
    </edge>
    <edge id=":2535842544_2" function="internal">
        <lane id=":2535842544_2_0" index="0" allow="pedestrian delivery bicycle" speed="6.07" length="7.80" shape="573781.31,-3862183.79 573778.56,-3862184.20 573776.65,-3862184.94 573775.56,-3862186.02 573775.29,-3862187.43"/>
    </edge>
    <edge id=":2535842544_3" function="internal">
        <lane id=":2535842544_3_0" index="0" allow="pedestrian delivery bicycle" speed="6.12" length="7.78" shape="573778.47,-3862187.14 573777.96,-3862185.81 573776.70,-3862184.93 573774.69,-3862184.49 573771.93,-3862184.51"/>
    </edge>
    <edge id=":4522137018_0" function="internal">
        <lane id=":4522137018_0_0" index="0" disallow="tram rail_urban rail rail_electric rail_fast ship" speed="12.50" length="9.74" shape="574303.05,-3862885.69 574305.44,-3862884.23 574307.34,-3862883.71 574309.40,-3862883.68 574312.30,-3862883.67"/>
    </edge>
    <edge id=":4522137018_1" function="internal">
        <lane id=":4522137018_1_0" index="0" disallow="tram rail_urban rail rail_electric rail_fast ship" speed="12.50" length="7.49" shape="574303.05,-3862885.69 574309.19,-3862881.40"/>
    </edge>
    <edge id=":4522137022_0" function="internal">
        <lane id=":4522137022_0_0" index="0" disallow="tram rail_urban rail rail_electric rail_fast ship" speed="12.50" length="28.12" shape="574332.99,-3862866.23 574304.98,-3862868.51"/>
        <lane id=":4522137022_0_1" index="1" disallow="tram rail_urban rail rail_electric rail_fast ship" speed="12.50" length="28.12" shape="574333.26,-3862869.42 574305.23,-3862871.70"/>
    </edge>
    <edge id=":4522137022_2" function="internal">
        <lane id=":4522137022_2_0" index="0" disallow="tram rail_urban rail rail_electric rail_fast ship" speed="7.41" length="6.96" shape="574333.26,-3862869.42 574326.41,-3862870.63"/>
    </edge>
    <edge id=":4522137022_9" function="internal">
        <lane id=":4522137022_9_0" index="0" disallow="tram rail_urban rail rail_electric rail_fast ship" speed="7.41" length="14.18" shape="574326.41,-3862870.63 574326.30,-3862870.65 574323.67,-3862872.78 574325.36,-3862875.82 574331.38,-3862879.77"/>
    </edge>
    <edge id=":4522137022_3" function="internal">
        <lane id=":4522137022_3_0" index="0" disallow="tram rail_urban rail rail_electric rail_fast ship" speed="11.94" length="23.62" shape="574309.34,-3862881.27 574314.31,-3862878.10 574319.64,-3862876.79 574325.33,-3862877.35 574331.38,-3862879.77"/>
    </edge>
    <edge id=":4522137022_4" function="internal">
        <lane id=":4522137022_4_0" index="0" disallow="tram rail_urban rail rail_electric rail_fast ship" speed="12.50" length="25.30" shape="574309.34,-3862881.27 574313.36,-3862879.16 574319.26,-3862877.63 574326.31,-3862876.55 574333.80,-3862875.80"/>
    </edge>
    <edge id=":4522137022_5" function="internal">
        <lane id=":4522137022_5_0" index="0" disallow="tram rail_urban rail rail_electric rail_fast ship" speed="7.24" length="19.62" shape="574309.34,-3862881.27 574313.84,-3862876.59 574314.66,-3862873.44 574311.79,-3862871.80 574305.23,-3862871.70"/>
    </edge>
    <edge id=":4522137022_6" function="internal">
        <lane id=":4522137022_6_0" index="0" disallow="tram rail_urban rail rail_electric rail_fast ship" speed="12.50" length="25.90" shape="574305.73,-3862878.08 574313.32,-3862877.68 574320.64,-3862877.74 574326.92,-3862878.39 574331.38,-3862879.77"/>
    </edge>
    <edge id=":4522137022_7" function="internal">
        <lane id=":4522137022_7_0" index="0" disallow="tram rail_urban rail rail_electric rail_fast ship" speed="12.50" length="28.16" shape="574305.73,-3862878.08 574333.80,-3862875.80"/>
        <lane id=":4522137022_7_1" index="1" disallow="tram rail_urban rail rail_electric rail_fast ship" speed="12.50" length="28.16" shape="574305.48,-3862874.89 574333.53,-3862872.61"/>
    </edge>
    <edge id=":4522137028_0" function="internal">
        <lane id=":4522137028_0_0" index="0" disallow="tram rail_urban rail rail_electric rail_fast ship" speed="12.50" length="9.31" shape="574329.42,-3862882.96 574338.72,-3862882.52"/>
    </edge>
    <edge id=":4522137028_1" function="internal">
        <lane id=":4522137028_1_0" index="0" disallow="tram rail_urban rail rail_electric rail_fast ship" speed="12.11" length="7.84" shape="574331.56,-3862879.86 574333.56,-3862881.08 574334.97,-3862881.97 574336.47,-3862882.47 574338.72,-3862882.52"/>
    </edge>
    <edge id=":917314587_0" function="internal">
        <lane id=":917314587_0_0" index="0" disallow="tram rail_urban rail rail_electric rail_fast ship" speed="6.17" length="9.05" shape="573837.89,-3862382.39 573835.35,-3862382.22 573833.61,-3862381.27 573832.67,-3862379.52 573832.54,-3862376.98"/>
    </edge>
    <edge id=":917314587_1" function="internal">
        <lane id=":917314587_1_0" index="0" disallow="tram rail_urban rail rail_electric rail_fast ship" speed="12.50" length="12.53" shape="573837.89,-3862382.39 573825.38,-3862383.45"/>
        <lane id=":917314587_1_1" index="1" disallow="tram rail_urban rail rail_electric rail_fast ship" speed="12.50" length="12.53" shape="573838.14,-3862385.58 573825.68,-3862386.64"/>
    </edge>
    <edge id=":917314587_3" function="internal">
        <lane id=":917314587_3_0" index="0" disallow="tram rail_urban rail rail_electric rail_fast ship" speed="12.50" length="15.04" shape="573832.39,-3862391.73 573832.09,-3862387.35 573832.01,-3862384.35 573832.16,-3862381.35 573832.54,-3862376.98"/>
        <lane id=":917314587_3_1" index="1" disallow="tram rail_urban rail rail_electric rail_fast ship" speed="12.50" length="15.04" shape="573829.20,-3862391.96 573828.88,-3862387.44 573828.80,-3862384.33 573828.96,-3862381.22 573829.35,-3862376.70"/>
    </edge>
    <edge id=":917314587_5" function="internal">
        <lane id=":917314587_5_0" index="0" disallow="tram rail_urban rail rail_electric rail_fast ship" speed="5.82" length="4.02" shape="573829.20,-3862391.96 573828.82,-3862389.52 573828.22,-3862388.10"/>
    </edge>
    <edge id=":917314587_6" function="internal">
        <lane id=":917314587_6_0" index="0" disallow="tram rail_urban rail rail_electric rail_fast ship" speed="5.82" length="3.11" shape="573828.22,-3862388.10 573828.11,-3862387.82 573827.06,-3862386.86 573825.68,-3862386.64"/>
    </edge>
    <edge id=":917326679_0" function="internal">
        <lane id=":917326679_0_0" index="0" disallow="tram rail_urban rail rail_electric rail_fast ship" speed="6.91" length="10.38" shape="574284.88,-3862764.64 574281.70,-3862764.54 574279.37,-3862763.66 574277.89,-3862762.02 574277.27,-3862759.60"/>
    </edge>
    <edge id=":917326679_1" function="internal">
        <lane id=":917326679_1_0" index="0" disallow="tram rail_urban rail rail_electric rail_fast ship" speed="12.50" length="17.60" shape="574284.88,-3862764.64 574267.34,-3862766.00"/>
        <lane id=":917326679_1_1" index="1" disallow="tram rail_urban rail rail_electric rail_fast ship" speed="12.50" length="17.60" shape="574285.13,-3862767.83 574267.58,-3862769.19"/>
    </edge>
    <edge id=":917326679_3" function="internal">
        <lane id=":917326679_3_0" index="0" disallow="tram rail_urban rail rail_electric rail_fast ship" speed="12.50" length="14.60" shape="574280.04,-3862773.87 574279.40,-3862769.61 574278.59,-3862766.74 574277.82,-3862763.87 574277.27,-3862759.60"/>
        <lane id=":917326679_3_1" index="1" disallow="tram rail_urban rail rail_electric rail_fast ship" speed="12.50" length="14.60" shape="574276.86,-3862774.16 574276.21,-3862769.88 574275.40,-3862767.00 574274.63,-3862764.12 574274.07,-3862759.83"/>
    </edge>
    <edge id=":917326679_5" function="internal">
        <lane id=":917326679_5_0" index="0" disallow="tram rail_urban rail rail_electric rail_fast ship" speed="6.58" length="9.16" shape="574273.67,-3862774.46 574273.09,-3862771.99 574271.88,-3862770.29 574270.05,-3862769.36 574267.58,-3862769.19"/>
    </edge>
    <edge id=":917333936_0" function="internal">
        <lane id=":917333936_0_0" index="0" disallow="tram rail_urban rail rail_electric rail_fast ship" speed="6.51" length="9.02" shape="574410.85,-3862973.56 574413.32,-3862973.69 574415.16,-3862974.58 574416.36,-3862976.22 574416.94,-3862978.62"/>
    </edge>
    <edge id=":917333936_1" function="internal">
        <lane id=":917333936_1_0" index="0" disallow="tram rail_urban rail rail_electric rail_fast ship" speed="12.50" length="14.37" shape="574415.64,-3862964.31 574416.94,-3862978.62"/>
    </edge>
    <edge id=":917336870_0" function="internal">
        <lane id=":917336870_0_0" index="0" allow="bus bicycle" speed="6.51" length="9.01" shape="573781.57,-3863031.83 573781.73,-3863029.37 573782.64,-3863027.55 573784.30,-3863026.36 573786.71,-3863025.81"/>
        <lane id=":917336870_0_1" index="1" disallow="tram rail_urban rail rail_electric rail_fast ship" speed="7.33" length="11.70" shape="573781.57,-3863031.83 573781.62,-3863027.97 573782.45,-3863025.15 573784.06,-3863023.37 573786.44,-3863022.62"/>
        <lane id=":917336870_0_2" index="2" disallow="tram rail_urban rail rail_electric rail_fast ship" speed="8.10" length="14.53" shape="573781.57,-3863031.83 573781.51,-3863026.58 573782.26,-3863022.76 573783.82,-3863020.38 573786.18,-3863019.43"/>
    </edge>
    <edge id=":917336870_3" function="internal">
        <lane id=":917336870_3_0" index="0" disallow="tram rail_urban rail rail_electric rail_fast ship" speed="12.50" length="17.54" shape="573781.57,-3863031.83 573780.15,-3863014.33"/>
        <lane id=":917336870_3_1" index="1" disallow="tram rail_urban rail rail_electric rail_fast ship" speed="12.50" length="17.54" shape="573778.38,-3863032.08 573776.96,-3863014.60"/>
    </edge>
    <edge id=":917340827_0" function="internal">
        <lane id=":917340827_0_0" index="0" disallow="tram rail_urban rail rail_electric rail_fast ship" speed="6.53" length="8.96" shape="574339.82,-3862657.94 574342.26,-3862658.09 574344.09,-3862658.99 574345.29,-3862660.62 574345.89,-3862663.00"/>
    </edge>
    <edge id=":917340827_1" function="internal">
        <lane id=":917340827_1_0" index="0" disallow="tram rail_urban rail rail_electric rail_fast ship" speed="12.50" length="11.05" shape="574339.82,-3862657.94 574350.82,-3862656.99"/>
    </edge>
    <edge id=":917340827_2" function="internal">
        <lane id=":917340827_2_0" index="0" disallow="tram rail_urban rail rail_electric rail_fast ship" speed="12.50" length="11.05" shape="574344.85,-3862651.99 574345.89,-3862663.00"/>
    </edge>
    <edge id=":917340827_3" function="internal">
        <lane id=":917340827_3_0" index="0" disallow="tram rail_urban rail rail_electric rail_fast ship" speed="6.45" length="8.90" shape="574344.85,-3862651.99 574345.40,-3862654.37 574346.58,-3862656.00 574348.39,-3862656.87 574350.82,-3862656.99"/>
    </edge>
    <edge id=":917357642_0" function="internal">
        <lane id=":917357642_0_0" index="0" disallow="tram rail_urban rail rail_electric rail_fast ship" speed="12.50" length="11.23" shape="573999.41,-3863106.06 573988.22,-3863106.93"/>
        <lane id=":917357642_0_1" index="1" disallow="tram rail_urban rail rail_electric rail_fast ship" speed="12.50" length="11.23" shape="573999.66,-3863109.25 573988.46,-3863110.12"/>
    </edge>
    <edge id=":917357642_2" function="internal">
        <lane id=":917357642_2_0" index="0" disallow="tram rail_urban rail rail_electric rail_fast ship" speed="6.49" length="9.03" shape="573999.66,-3863109.25 573997.25,-3863109.79 573995.59,-3863110.98 573994.69,-3863112.81 573994.55,-3863115.28"/>