<?xml version="1.0" encoding="UTF-8"?>

<!-- generated on 2023-12-10 23:18:05 by Eclipse SUMO netedit Version 1.19.0
<configuration xmlns:xsi="http://www.w3.org/2001/XMLSchema-instance" xsi:noNamespaceSchemaLocation="http://sumo.dlr.de/xsd/neteditConfiguration.xsd">

    <input>
        <sumo-net-file value="C:\Users\PC\Downloads\buenaverga.net.xml"/>
    </input>

    <output>
        <output-file value="C:\Users\PC\Downloads\buenaverga.net.xml"/>
    </output>

    <processing>
        <geometry.min-radius.fix.railways value="false"/>
        <geometry.max-grade.fix value="false"/>
        <offset.disable-normalization value="true"/>
        <lefthand value="0"/>
    </processing>

    <junctions>
        <no-turnarounds value="true"/>
        <junctions.corner-detail value="5"/>
        <junctions.limit-turn-speed value="5.50"/>
        <rectangular-lane-cut value="0"/>
    </junctions>

    <pedestrian>
        <walkingareas value="0"/>
    </pedestrian>

</configuration>
-->

<net version="1.16" junctionCornerDetail="5" limitTurnSpeed="5.50" xmlns:xsi="http://www.w3.org/2001/XMLSchema-instance" xsi:noNamespaceSchemaLocation="http://sumo.dlr.de/xsd/net_file.xsd">

    <location netOffset="0.00,0.00" convBoundary="573105.89,-3863268.68,574463.08,-3862104.00" origBoundary="-56.199827,-34.909212,-56.184937,-34.898649" projParameter="+proj=utm +zone=21 +ellps=WGS84 +datum=WGS84 +units=m +no_defs"/>

    <type id="highway.footway" priority="1" numLanes="1" speed="2.78" allow="pedestrian" oneway="1" width="2.00"/>
    <type id="highway.pedestrian" priority="1" numLanes="1" speed="2.78" allow="pedestrian" oneway="1" width="2.00"/>
    <type id="highway.primary" priority="12" numLanes="2" speed="27.78" disallow="tram rail_urban rail rail_electric rail_fast ship" oneway="0"/>
    <type id="highway.primary_link" priority="7" numLanes="1" speed="22.22" disallow="tram rail_urban rail rail_electric rail_fast ship" oneway="0"/>
    <type id="highway.residential" priority="3" numLanes="1" speed="13.89" disallow="tram rail_urban rail rail_electric rail_fast ship" oneway="0"/>
    <type id="highway.secondary" priority="11" numLanes="1" speed="27.78" disallow="tram rail_urban rail rail_electric rail_fast ship" oneway="0"/>
    <type id="highway.service" priority="1" numLanes="1" speed="5.56" allow="pedestrian delivery bicycle" oneway="0"/>
    <type id="highway.steps" priority="1" numLanes="1" speed="1.39" allow="pedestrian" oneway="1" width="2.00"/>
    <type id="highway.tertiary" priority="10" numLanes="1" speed="22.22" disallow="tram rail_urban rail rail_electric rail_fast ship" oneway="0"/>

    <edge id=":10259566687_0" function="internal">
        <lane id=":10259566687_0_0" index="0" disallow="tram rail_urban rail rail_electric rail_fast ship" speed="11.72" length="9.28" shape="573542.40,-3862202.49 573539.75,-3862202.51 573537.98,-3862201.92 573536.32,-3862200.80 573534.02,-3862199.26"/>
    </edge>
    <edge id=":10259566687_1" function="internal">
        <lane id=":10259566687_1_0" index="0" disallow="tram rail_urban rail rail_electric rail_fast ship" speed="12.50" length="9.24" shape="573542.40,-3862202.49 573533.23,-3862203.18"/>
        <lane id=":10259566687_1_1" index="1" disallow="tram rail_urban rail rail_electric rail_fast ship" speed="12.50" length="9.24" shape="573542.73,-3862205.67 573533.47,-3862206.37"/>
    </edge>
    <edge id=":11104911654_0" function="internal">
        <lane id=":11104911654_0_0" index="0" disallow="tram rail_urban rail rail_electric rail_fast ship" speed="12.50" length="5.00" shape="573364.11,-3863004.89 573364.56,-3863009.87"/>
    </edge>
    <edge id=":11104911656_0" function="internal">
        <lane id=":11104911656_0_0" index="0" disallow="tram rail_urban rail rail_electric rail_fast ship" speed="12.50" length="5.07" shape="573398.27,-3862939.77 573393.21,-3862940.18"/>
        <lane id=":11104911656_0_1" index="1" disallow="tram rail_urban rail rail_electric rail_fast ship" speed="12.50" length="5.07" shape="573398.52,-3862942.96 573393.48,-3862943.37"/>
    </edge>
    <edge id=":11104911656_2" function="internal">
        <lane id=":11104911656_2_0" index="0" disallow="tram rail_urban rail rail_electric rail_fast ship" speed="12.50" length="5.02" shape="573394.02,-3862949.75 573399.02,-3862949.34"/>
        <lane id=":11104911656_2_1" index="1" disallow="tram rail_urban rail rail_electric rail_fast ship" speed="12.50" length="5.02" shape="573393.75,-3862946.56 573398.77,-3862946.15"/>
    </edge>
    <edge id=":11296502611_0" function="internal">
        <lane id=":11296502611_0_0" index="0" disallow="tram rail_urban rail rail_electric rail_fast ship" speed="12.50" length="0.30" shape="574413.30,-3862938.15 574413.32,-3862938.45"/>
    </edge>
    <edge id=":1862170252_0" function="internal">
        <lane id=":1862170252_0_0" index="0" disallow="tram rail_urban rail rail_electric rail_fast ship" speed="12.50" length="20.61" shape="573745.88,-3862512.62 573737.75,-3862531.81"/>
        <lane id=":1862170252_0_1" index="1" disallow="tram rail_urban rail rail_electric rail_fast ship" speed="12.50" length="20.61" shape="573748.82,-3862513.89 573740.77,-3862532.86"/>
        <lane id=":1862170252_0_2" index="2" disallow="tram rail_urban rail rail_electric rail_fast ship" speed="12.50" length="20.61" shape="573751.76,-3862515.15 573743.80,-3862533.91"/>
    </edge>
    <edge id=":1862170252_3" function="internal">
        <lane id=":1862170252_3_0" index="0" disallow="tram rail_urban rail rail_electric rail_fast ship" speed="12.50" length="20.66" shape="573737.67,-3862512.15 573738.54,-3862518.05 573739.28,-3862522.17 573739.24,-3862526.20 573737.75,-3862531.81"/>
        <lane id=":1862170252_3_1" index="1" disallow="tram rail_urban rail rail_electric rail_fast ship" speed="12.50" length="20.66" shape="573740.85,-3862511.84 573741.73,-3862517.93 573742.47,-3862522.36 573742.38,-3862526.79 573740.77,-3862532.86"/>
    </edge>
    <edge id=":1893973257_0" function="internal">
        <lane id=":1893973257_0_0" index="0" disallow="tram rail_urban rail rail_electric rail_fast ship" speed="12.50" length="17.62" shape="573668.74,-3862813.88 573651.21,-3862815.51"/>
        <lane id=":1893973257_0_1" index="1" disallow="tram rail_urban rail rail_electric rail_fast ship" speed="12.50" length="17.62" shape="573669.04,-3862817.06 573651.49,-3862818.69"/>
    </edge>
    <edge id=":1893973257_2" function="internal">
        <lane id=":1893973257_2_0" index="0" disallow="tram rail_urban rail rail_electric rail_fast ship" speed="7.01" length="10.50" shape="573669.04,-3862817.06 573665.92,-3862817.72 573663.75,-3862818.99 573662.53,-3862820.89 573662.27,-3862823.41"/>
    </edge>
    <edge id=":1893973257_3" function="internal">
        <lane id=":1893973257_3_0" index="0" disallow="tram rail_urban rail rail_electric rail_fast ship" speed="6.51" length="9.04" shape="573656.27,-3862809.42 573656.15,-3862811.89 573655.26,-3862813.73 573653.61,-3862814.94 573651.21,-3862815.51"/>
    </edge>
    <edge id=":1893973257_4" function="internal">
        <lane id=":1893973257_4_0" index="0" disallow="tram rail_urban rail rail_electric rail_fast ship" speed="12.50" length="14.59" shape="573659.46,-3862809.12 573659.60,-3862813.43 573659.31,-3862816.38 573659.00,-3862819.34 573659.08,-3862823.65"/>
        <lane id=":1893973257_4_1" index="1" disallow="tram rail_urban rail rail_electric rail_fast ship" speed="12.50" length="14.59" shape="573662.64,-3862808.83 573662.79,-3862813.15 573662.50,-3862816.11 573662.19,-3862819.08 573662.27,-3862823.41"/>
    </edge>
    <edge id=":1893973259_0" function="internal">
        <lane id=":1893973259_0_0" index="0" disallow="tram rail_urban rail rail_electric rail_fast ship" speed="12.50" length="5.27" shape="574369.90,-3862863.13 574364.64,-3862863.56"/>
        <lane id=":1893973259_0_1" index="1" disallow="tram rail_urban rail rail_electric rail_fast ship" speed="12.50" length="5.27" shape="574370.15,-3862866.32 574364.91,-3862866.75"/>
    </edge>
    <edge id=":1893973259_2" function="internal">
        <lane id=":1893973259_2_0" index="0" disallow="tram rail_urban rail rail_electric rail_fast ship" speed="12.50" length="5.23" shape="574365.44,-3862873.13 574370.65,-3862872.70"/>
        <lane id=":1893973259_2_1" index="1" disallow="tram rail_urban rail rail_electric rail_fast ship" speed="12.50" length="5.23" shape="574365.18,-3862869.94 574370.40,-3862869.51"/>
    </edge>
    <edge id=":1893973264_0" function="internal">
        <lane id=":1893973264_0_0" index="0" disallow="tram rail_urban rail rail_electric rail_fast ship" speed="12.50" length="4.88" shape="573875.89,-3862897.34 573874.37,-3862897.37 573873.33,-3862897.46 573872.30,-3862897.62 573870.80,-3862897.87"/>
        <lane id=":1893973264_0_1" index="1" disallow="tram rail_urban rail rail_electric rail_fast ship" speed="12.50" length="4.88" shape="573875.91,-3862900.54 573874.53,-3862900.57 573873.59,-3862900.65 573872.66,-3862900.80 573871.30,-3862901.03"/>
    </edge>
    <edge id=":1893973274_0" function="internal">
        <lane id=":1893973274_0_0" index="0" disallow="tram rail_urban rail rail_electric rail_fast ship" speed="12.50" length="0.54" shape="573905.36,-3862899.67 573905.29,-3862899.68 573905.23,-3862899.68 573905.18,-3862899.68 573905.10,-3862899.68"/>
        <lane id=":1893973274_0_1" index="1" disallow="tram rail_urban rail rail_electric rail_fast ship" speed="12.50" length="0.54" shape="573905.66,-3862902.86 573905.42,-3862902.88 573905.26,-3862902.89 573905.09,-3862902.89 573904.85,-3862902.87"/>
    </edge>
    <edge id=":1893973274_2" function="internal">
        <lane id=":1893973274_2_0" index="0" disallow="tram rail_urban rail rail_electric rail_fast ship" speed="12.50" length="1.62" shape="573904.36,-3862909.31 573906.25,-3862909.23"/>
        <lane id=":1893973274_2_1" index="1" disallow="tram rail_urban rail rail_electric rail_fast ship" speed="12.50" length="1.62" shape="573904.61,-3862906.07 573905.01,-3862906.04 573905.28,-3862906.05 573905.56,-3862906.07 573905.96,-3862906.05"/>
    </edge>
    <edge id=":1893981273_0" function="internal">
        <lane id=":1893981273_0_0" index="0" disallow="tram rail_urban rail rail_electric rail_fast ship" speed="5.26" length="7.62" shape="573825.18,-3862383.47 573823.54,-3862383.26 573822.73,-3862382.23 573822.76,-3862380.38 573823.63,-3862377.71"/>
    </edge>
    <edge id=":1893981273_1" function="internal">
        <lane id=":1893981273_1_0" index="0" disallow="tram rail_urban rail rail_electric rail_fast ship" speed="12.50" length="15.74" shape="573825.48,-3862386.66 573820.43,-3862386.87 573816.57,-3862386.62 573813.23,-3862386.27 573809.77,-3862386.19"/>
    </edge>
    <edge id=":1893981273_2" function="internal">
        <lane id=":1893981273_2_0" index="0" disallow="tram rail_urban rail rail_electric rail_fast ship" speed="12.50" length="18.30" shape="573816.46,-3862394.60 573823.63,-3862377.71"/>
        <lane id=":1893981273_2_1" index="1" disallow="tram rail_urban rail rail_electric rail_fast ship" speed="12.50" length="18.30" shape="573813.52,-3862393.33 573820.67,-3862376.48"/>
        <lane id=":1893981273_2_2" index="2" disallow="tram rail_urban rail rail_electric rail_fast ship" speed="12.50" length="18.30" shape="573810.59,-3862392.05 573817.72,-3862375.25"/>
    </edge>
    <edge id=":1893981274_0" function="internal">
        <lane id=":1893981274_0_0" index="0" disallow="tram rail_urban rail rail_electric rail_fast ship" speed="9.61" length="13.37" shape="573800.72,-3862378.09 573798.83,-3862382.01 573796.74,-3862384.87 573794.47,-3862386.68 573792.00,-3862387.43"/>
    </edge>
    <edge id=":1893981274_1" function="internal">
        <lane id=":1893981274_1_0" index="0" disallow="tram rail_urban rail rail_electric rail_fast ship" speed="12.50" length="14.77" shape="573800.72,-3862378.09 573795.11,-3862391.69"/>
        <lane id=":1893981274_1_1" index="1" disallow="tram rail_urban rail rail_electric rail_fast ship" speed="12.50" length="14.77" shape="573803.69,-3862379.30 573798.06,-3862392.93"/>
        <lane id=":1893981274_1_2" index="2" disallow="tram rail_urban rail rail_electric rail_fast ship" speed="12.50" length="14.77" shape="573806.65,-3862380.50 573801.01,-3862394.16"/>
        <lane id=":1893981274_1_3" index="3" disallow="tram rail_urban rail rail_electric rail_fast ship" speed="12.50" length="14.77" shape="573809.62,-3862381.70 573803.96,-3862395.40"/>
    </edge>
    <edge id=":1893981274_5" function="internal">
        <lane id=":1893981274_5_0" index="0" disallow="tram rail_urban rail rail_electric rail_fast ship" speed="12.50" length="17.61" shape="573809.57,-3862386.20 573792.00,-3862387.43"/>
    </edge>
    <edge id=":1893981274_6" function="internal">
        <lane id=":1893981274_6_0" index="0" disallow="tram rail_urban rail rail_electric rail_fast ship" speed="9.09" length="12.33" shape="573809.57,-3862386.20 573807.04,-3862386.78 573804.77,-3862388.31 573802.76,-3862390.77 573801.01,-3862394.16"/>
        <lane id=":1893981274_6_1" index="1" disallow="tram rail_urban rail rail_electric rail_fast ship" speed="8.60" length="10.97" shape="573809.57,-3862386.20 573808.55,-3862386.80 573807.28,-3862388.54 573805.75,-3862391.41 573803.96,-3862395.40"/>
    </edge>
    <edge id=":1893981275_0" function="internal">
        <lane id=":1893981275_0_0" index="0" disallow="tram rail_urban rail rail_electric rail_fast ship" speed="9.70" length="13.67" shape="573769.70,-3862502.89 573771.53,-3862499.48 573773.80,-3862496.96 573776.52,-3862495.35 573779.69,-3862494.64"/>
    </edge>
    <edge id=":1893981275_1" function="internal">
        <lane id=":1893981275_1_0" index="0" disallow="tram rail_urban rail rail_electric rail_fast ship" speed="12.50" length="17.14" shape="573769.70,-3862502.89 573776.38,-3862487.15"/>
        <lane id=":1893981275_1_1" index="1" disallow="tram rail_urban rail rail_electric rail_fast ship" speed="12.50" length="17.14" shape="573766.74,-3862501.66 573773.44,-3862485.88"/>
        <lane id=":1893981275_1_2" index="2" disallow="tram rail_urban rail rail_electric rail_fast ship" speed="12.50" length="17.14" shape="573763.79,-3862500.43 573770.50,-3862484.61"/>
    </edge>
    <edge id=":1893981275_4" function="internal">
        <lane id=":1893981275_4_0" index="0" disallow="tram rail_urban rail rail_electric rail_fast ship" speed="12.50" length="14.32" shape="573765.42,-3862495.77 573779.69,-3862494.64"/>
        <lane id=":1893981275_4_1" index="1" disallow="tram rail_urban rail rail_electric rail_fast ship" speed="12.50" length="14.32" shape="573765.15,-3862492.58 573779.44,-3862491.45"/>
    </edge>
    <edge id=":1893981275_6" function="internal">
        <lane id=":1893981275_6_0" index="0" disallow="tram rail_urban rail rail_electric rail_fast ship" speed="8.94" length="11.22" shape="573765.15,-3862492.58 573767.77,-3862491.99 573770.02,-3862490.67 573771.91,-3862488.64 573773.44,-3862485.88"/>
        <lane id=":1893981275_6_1" index="1" disallow="tram rail_urban rail rail_electric rail_fast ship" speed="8.39" length="9.81" shape="573765.15,-3862492.58 573766.22,-3862492.02 573767.48,-3862490.51 573768.90,-3862488.04 573770.50,-3862484.61"/>
    </edge>
    <edge id=":1893981276_0" function="internal">
        <lane id=":1893981276_0_0" index="0" disallow="tram rail_urban rail rail_electric rail_fast ship" speed="12.50" length="21.19" shape="573756.79,-3862482.92 573750.02,-3862502.97"/>
        <lane id=":1893981276_0_1" index="1" disallow="tram rail_urban rail rail_electric rail_fast ship" speed="12.50" length="21.19" shape="573759.74,-3862484.15 573752.96,-3862504.23"/>
        <lane id=":1893981276_0_2" index="2" disallow="tram rail_urban rail rail_electric rail_fast ship" speed="12.50" length="21.19" shape="573762.70,-3862485.39 573755.90,-3862505.49"/>
    </edge>
    <edge id=":1893981276_3" function="internal">
        <lane id=":1893981276_3_0" index="0" disallow="tram rail_urban rail rail_electric rail_fast ship" speed="5.71" length="9.21" shape="573746.01,-3862497.40 573748.75,-3862497.54 573750.33,-3862498.51 573750.76,-3862500.32 573750.02,-3862502.97"/>
    </edge>
    <edge id=":1893981276_4" function="internal">
        <lane id=":1893981276_4_0" index="0" disallow="tram rail_urban rail rail_electric rail_fast ship" speed="12.50" length="19.28" shape="573746.01,-3862497.40 573765.22,-3862495.79"/>
        <lane id=":1893981276_4_1" index="1" disallow="tram rail_urban rail rail_electric rail_fast ship" speed="12.50" length="19.28" shape="573745.74,-3862494.22 573764.95,-3862492.60"/>
    </edge>
    <edge id=":1894788773_0" function="internal">
        <lane id=":1894788773_0_0" index="0" disallow="tram rail_urban rail rail_electric rail_fast ship" speed="6.49" length="9.03" shape="573731.01,-3862498.65 573733.48,-3862498.80 573735.31,-3862499.71 573736.48,-3862501.37 573737.01,-3862503.79"/>
    </edge>
    <edge id=":1894788773_1" function="internal">
        <lane id=":1894788773_1_0" index="0" disallow="tram rail_urban rail rail_electric rail_fast ship" speed="12.50" length="14.46" shape="573731.01,-3862498.65 573745.42,-3862497.45"/>
        <lane id=":1894788773_1_1" index="1" disallow="tram rail_urban rail rail_electric rail_fast ship" speed="12.50" length="14.46" shape="573730.75,-3862495.46 573745.15,-3862494.27"/>
    </edge>
    <edge id=":1894788773_3" function="internal">
        <lane id=":1894788773_3_0" index="0" disallow="tram rail_urban rail rail_electric rail_fast ship" speed="12.50" length="14.46" shape="573735.95,-3862489.37 573737.01,-3862503.79"/>
        <lane id=":1894788773_3_1" index="1" disallow="tram rail_urban rail rail_electric rail_fast ship" speed="12.50" length="14.46" shape="573739.14,-3862489.14 573740.20,-3862503.56"/>
    </edge>
    <edge id=":1894788773_5" function="internal">
        <lane id=":1894788773_5_0" index="0" disallow="tram rail_urban rail rail_electric rail_fast ship" speed="6.48" length="9.03" shape="573739.14,-3862489.14 573739.67,-3862491.56 573740.85,-3862493.22 573742.68,-3862494.12 573745.15,-3862494.27"/>
    </edge>
    <edge id=":1894788802_0" function="internal">
        <lane id=":1894788802_0_0" index="0" disallow="tram rail_urban rail rail_electric rail_fast ship" speed="12.50" length="15.59" shape="573121.81,-3862542.18 573123.03,-3862557.73"/>
    </edge>
    <edge id=":1894788802_1" function="internal">
        <lane id=":1894788802_1_0" index="0" disallow="tram rail_urban rail rail_electric rail_fast ship" speed="6.58" length="13.25" shape="573121.81,-3862542.18 573122.67,-3862546.51 573124.30,-3862548.82 573126.69,-3862549.11 573129.85,-3862547.39"/>
        <lane id=":1894788802_1_1" index="1" disallow="tram rail_urban rail rail_electric rail_fast ship" speed="5.63" length="9.29" shape="573121.81,-3862542.18 573122.42,-3862544.93 573123.64,-3862546.30 573125.47,-3862546.27 573127.90,-3862544.86"/>
    </edge>
    <edge id=":1896395902_0" function="internal">
        <lane id=":1896395902_0_0" index="0" allow="pedestrian delivery bicycle" speed="5.06" length="5.02" shape="574073.53,-3862751.34 574072.15,-3862751.24 574071.13,-3862750.73 574070.47,-3862749.81 574070.17,-3862748.47"/>
    </edge>
    <edge id=":1896395902_1" function="internal">
        <lane id=":1896395902_1_0" index="0" allow="pedestrian delivery bicycle" speed="5.03" length="5.01" shape="574070.88,-3862757.85 574070.97,-3862756.48 574071.48,-3862755.47 574072.41,-3862754.82 574073.75,-3862754.53"/>
    </edge>
    <edge id=":1896395902_2" function="internal">
        <lane id=":1896395902_2_0" index="0" disallow="tram rail_urban rail rail_electric rail_fast ship" speed="12.50" length="9.40" shape="574070.88,-3862757.85 574070.17,-3862748.47"/>
        <lane id=":1896395902_2_1" index="1" disallow="tram rail_urban rail rail_electric rail_fast ship" speed="12.50" length="9.40" shape="574067.69,-3862758.09 574066.98,-3862748.71"/>
    </edge>
    <edge id=":1896395907_0" function="internal">
        <lane id=":1896395907_0_0" index="0" allow="pedestrian delivery bicycle" speed="5.18" length="5.17" shape="574113.50,-3862777.84 574112.15,-3862777.74 574111.13,-3862777.20 574110.44,-3862776.22 574110.08,-3862774.79"/>
    </edge>
    <edge id=":1896395907_1" function="internal">
        <lane id=":1896395907_1_0" index="0" disallow="tram rail_urban rail rail_electric rail_fast ship" speed="12.50" length="9.41" shape="574113.50,-3862777.84 574104.12,-3862778.57"/>
        <lane id=":1896395907_1_1" index="1" disallow="tram rail_urban rail rail_electric rail_fast ship" speed="12.50" length="9.41" shape="574113.75,-3862781.03 574104.37,-3862781.76"/>
    </edge>
    <edge id=":1896395907_3" function="internal">
        <lane id=":1896395907_3_0" index="0" allow="pedestrian delivery bicycle" speed="5.00" length="5.05" shape="574106.90,-3862775.18 574106.87,-3862776.57 574106.40,-3862777.60 574105.48,-3862778.26 574104.12,-3862778.57"/>
    </edge>
    <edge id=":1897577710_0" function="internal">
        <lane id=":1897577710_0_0" index="0" disallow="tram rail_urban rail rail_electric rail_fast ship" speed="6.51" length="9.03" shape="573637.57,-3862511.79 573637.72,-3862509.32 573638.63,-3862507.49 573640.29,-3862506.30 573642.70,-3862505.76"/>
    </edge>
    <edge id=":1897577710_1" function="internal">
        <lane id=":1897577710_1_0" index="0" disallow="tram rail_urban rail rail_electric rail_fast ship" speed="12.50" length="14.40" shape="573637.57,-3862511.79 573636.40,-3862497.43"/>
    </edge>
    <edge id=":1897577710_2" function="internal">
        <lane id=":1897577710_2_0" index="0" disallow="tram rail_urban rail rail_electric rail_fast ship" speed="12.50" length="11.21" shape="573631.53,-3862506.66 573642.70,-3862505.76"/>
        <lane id=":1897577710_2_1" index="1" disallow="tram rail_urban rail rail_electric rail_fast ship" speed="12.50" length="11.21" shape="573631.28,-3862503.47 573642.45,-3862502.57"/>
    </edge>
    <edge id=":1897577710_4" function="internal">
        <lane id=":1897577710_4_0" index="0" disallow="tram rail_urban rail rail_electric rail_fast ship" speed="6.51" length="9.03" shape="573631.28,-3862503.47 573633.69,-3862502.92 573635.35,-3862501.73 573636.25,-3862499.90 573636.40,-3862497.43"/>
    </edge>
    <edge id=":1897577711_0" function="internal">
        <lane id=":1897577711_0_0" index="0" disallow="tram rail_urban rail rail_electric rail_fast ship" speed="6.53" length="9.03" shape="573525.63,-3862515.12 573528.10,-3862515.30 573529.93,-3862516.22 573531.11,-3862517.88 573531.65,-3862520.29"/>
    </edge>
    <edge id=":1897577711_1" function="internal">
        <lane id=":1897577711_1_0" index="0" disallow="tram rail_urban rail rail_electric rail_fast ship" speed="12.50" length="14.37" shape="573525.63,-3862515.12 573539.98,-3862514.05"/>
        <lane id=":1897577711_1_1" index="1" disallow="tram rail_urban rail rail_electric rail_fast ship" speed="12.50" length="14.37" shape="573525.41,-3862511.93 573539.72,-3862510.86"/>
    </edge>
    <edge id=":1897577711_3" function="internal">
        <lane id=":1897577711_3_0" index="0" disallow="tram rail_urban rail rail_electric rail_fast ship" speed="12.50" length="14.35" shape="573530.55,-3862505.98 573531.65,-3862520.29"/>
        <lane id=":1897577711_3_1" index="1" disallow="tram rail_urban rail rail_electric rail_fast ship" speed="12.50" length="14.35" shape="573533.74,-3862505.74 573534.84,-3862520.04"/>
    </edge>
    <edge id=":1897577711_5" function="internal">
        <lane id=":1897577711_5_0" index="0" disallow="tram rail_urban rail rail_electric rail_fast ship" speed="6.48" length="8.98" shape="573533.74,-3862505.74 573534.27,-3862508.15 573535.45,-3862509.80 573537.26,-3862510.71 573539.72,-3862510.86"/>
    </edge>
    <edge id=":1897577712_0" function="internal">
        <lane id=":1897577712_0_0" index="0" disallow="tram rail_urban rail rail_electric rail_fast ship" speed="6.49" length="9.03" shape="573430.60,-3862527.31 573430.77,-3862524.84 573431.69,-3862523.02 573433.36,-3862521.85 573435.78,-3862521.33"/>
    </edge>
    <edge id=":1897577712_1" function="internal">
        <lane id=":1897577712_1_0" index="0" disallow="tram rail_urban rail rail_electric rail_fast ship" speed="12.50" length="14.40" shape="573430.60,-3862527.31 573429.51,-3862512.95"/>
    </edge>
    <edge id=":1897577712_2" function="internal">
        <lane id=":1897577712_2_0" index="0" disallow="tram rail_urban rail rail_electric rail_fast ship" speed="12.50" length="11.24" shape="573424.59,-3862522.18 573435.78,-3862521.33"/>
        <lane id=":1897577712_2_1" index="1" disallow="tram rail_urban rail rail_electric rail_fast ship" speed="12.50" length="11.24" shape="573424.32,-3862518.99 573435.56,-3862518.14"/>
    </edge>
    <edge id=":1897577712_4" function="internal">
        <lane id=":1897577712_4_0" index="0" disallow="tram rail_urban rail rail_electric rail_fast ship" speed="6.53" length="9.07" shape="573424.32,-3862518.99 573426.75,-3862518.44 573428.43,-3862517.25 573429.35,-3862515.42 573429.51,-3862512.95"/>
    </edge>
    <edge id=":1897577713_0" function="internal">
        <lane id=":1897577713_0_0" index="0" disallow="tram rail_urban rail rail_electric rail_fast ship" speed="6.53" length="9.01" shape="573321.19,-3862530.73 573323.65,-3862530.90 573325.48,-3862531.81 573326.67,-3862533.46 573327.22,-3862535.86"/>
    </edge>
    <edge id=":1897577713_1" function="internal">
        <lane id=":1897577713_1_0" index="0" disallow="tram rail_urban rail rail_electric rail_fast ship" speed="12.50" length="11.14" shape="573321.19,-3862530.73 573332.32,-3862529.86"/>
        <lane id=":1897577713_1_1" index="1" disallow="tram rail_urban rail rail_electric rail_fast ship" speed="12.50" length="11.14" shape="573320.96,-3862527.54 573332.05,-3862526.67"/>
    </edge>
    <edge id=":1897577713_3" function="internal">
        <lane id=":1897577713_3_0" index="0" disallow="tram rail_urban rail rail_electric rail_fast ship" speed="12.50" length="14.32" shape="573326.09,-3862521.58 573327.22,-3862535.86"/>
    </edge>
    <edge id=":1897577713_4" function="internal">
        <lane id=":1897577713_4_0" index="0" disallow="tram rail_urban rail rail_electric rail_fast ship" speed="6.46" length="8.96" shape="573326.09,-3862521.58 573326.62,-3862523.98 573327.79,-3862525.63 573329.60,-3862526.53 573332.05,-3862526.67"/>
    </edge>
    <edge id=":1897577714_0" function="internal">
        <lane id=":1897577714_0_0" index="0" disallow="tram rail_urban rail rail_electric rail_fast ship" speed="6.49" length="9.03" shape="573225.50,-3862543.32 573225.65,-3862540.85 573226.56,-3862539.02 573228.23,-3862537.85 573230.65,-3862537.32"/>
    </edge>
    <edge id=":1897577714_1" function="internal">
        <lane id=":1897577714_1_0" index="0" disallow="tram rail_urban rail rail_electric rail_fast ship" speed="12.50" length="14.43" shape="573225.50,-3862543.32 573224.27,-3862528.94"/>
    </edge>
    <edge id=":1897577714_2" function="internal">
        <lane id=":1897577714_2_0" index="0" disallow="tram rail_urban rail rail_electric rail_fast ship" speed="12.50" length="11.25" shape="573219.44,-3862538.18 573230.65,-3862537.32"/>
        <lane id=":1897577714_2_1" index="1" disallow="tram rail_urban rail rail_electric rail_fast ship" speed="12.50" length="11.25" shape="573219.19,-3862534.99 573230.42,-3862534.13"/>
    </edge>
    <edge id=":1897577714_4" function="internal">
        <lane id=":1897577714_4_0" index="0" disallow="tram rail_urban rail rail_electric rail_fast ship" speed="6.48" length="9.03" shape="573219.19,-3862534.99 573221.60,-3862534.44 573223.26,-3862533.25 573224.15,-3862531.42 573224.27,-3862528.94"/>
    </edge>
    <edge id=":1930002969_0" function="internal">
        <lane id=":1930002969_0_0" index="0" disallow="tram rail_urban rail rail_electric rail_fast ship" speed="12.50" length="5.00" shape="574366.29,-3862880.55 574371.28,-3862880.19"/>
    </edge>
    <edge id=":2138365557_0" function="internal">
        <lane id=":2138365557_0_0" index="0" disallow="tram rail_urban rail rail_electric rail_fast ship" speed="13.20" length="8.70" shape="574438.65,-3862877.93 574440.97,-3862878.77 574442.28,-3862880.09 574443.59,-3862881.44 574445.89,-3862882.41"/>
    </edge>
    <edge id=":2525992481_0" function="internal">
        <lane id=":2525992481_0_0" index="0" allow="pedestrian delivery bicycle" speed="4.70" length="3.86" shape="573710.83,-3862185.87 573710.23,-3862185.50 573709.86,-3862184.54 573709.66,-3862183.40 573709.52,-3862182.44"/>
    </edge>
    <edge id=":2525992481_1" function="internal">
        <lane id=":2525992481_1_0" index="0" disallow="tram rail_urban rail rail_electric rail_fast ship" speed="12.50" length="7.10" shape="573710.83,-3862185.87 573703.71,-3862186.48"/>
        <lane id=":2525992481_1_1" index="1" disallow="tram rail_urban rail rail_electric rail_fast ship" speed="12.50" length="7.10" shape="573711.03,-3862189.06 573704.01,-3862189.66"/>
    </edge>
    <edge id=":2525992481_3" function="internal">
        <lane id=":2525992481_3_0" index="0" allow="pedestrian delivery bicycle" speed="4.96" length="5.10" shape="573706.37,-3862182.99 573706.41,-3862184.40 573705.98,-3862185.45 573705.08,-3862186.14 573703.71,-3862186.48"/>
    </edge>
    <edge id=":2525992486_0" function="internal">
        <lane id=":2525992486_0_0" index="0" disallow="tram rail_urban rail rail_electric rail_fast ship" speed="12.50" length="11.23" shape="573617.37,-3862194.66 573606.17,-3862195.78"/>
        <lane id=":2525992486_0_1" index="1" disallow="tram rail_urban rail rail_electric rail_fast ship" speed="12.50" length="11.23" shape="573617.67,-3862197.85 573606.51,-3862198.97"/>
    </edge>
    <edge id=":2525992486_2" function="internal">