<?xml version="1.0" encoding="UTF-8"?>

<!-- generated on 2023-12-15 02:37:07.341895 by randomTrips.py v1_18_0+0000-03ecfdea036
<configuration>
    <net-file value="E:\Programas\Aplicaciones\Sumo\tools\InstanciaMediana.net.xml"/>
    <route-file value="E:\Programas\Aplicaciones\Sumo\tools\routesMedian.rou.xml"/>
    <end value="50.0"/>
    <period value="1.0"/>
</configuration>
-->

<!-- generated on 2023-12-15 02:37:07 by Eclipse SUMO duarouter Version 1.18.0
<configuration xmlns:xsi="http://www.w3.org/2001/XMLSchema-instance" xsi:noNamespaceSchemaLocation="http://sumo.dlr.de/xsd/duarouterConfiguration.xsd">

    <input>
        <net-file value="E:\Programas\Aplicaciones\Sumo\tools\InstanciaMediana.net.xml"/>
        <route-files value="trips.trips.xml"/>
    </input>

    <output>
        <output-file value="E:\Programas\Aplicaciones\Sumo\tools\routesMedian.rou.xml"/>
        <alternatives-output value="NUL"/>
    </output>

    <time>
        <begin value="0"/>
        <end value="50.0"/>
    </time>

    <report>
        <no-warnings value="true"/>
        <ignore-errors value="true"/>
        <no-step-log value="true"/>
    </report>

</configuration>
-->

<routes xmlns:xsi="http://www.w3.org/2001/XMLSchema-instance" xsi:noNamespaceSchemaLocation="http://sumo.dlr.de/xsd/routes_file.xsd">
    <vehicle id="0" depart="0.00">
        <route edges="78098364#0 78098364#1 190682782#5 190682782#6 190682782#7 78117258#2 -179061671 -179061659"/>
    </vehicle>
    <vehicle id="1" depart="1.00">
        <route edges="179061710#1 179061645 179061659 78112917#0 78112917#1 380627284#4 380627284#5 78098364#1 78098364#2 179061697"/>
    </vehicle>
    <vehicle id="3" depart="3.00">
        <route edges="78117258#0 78117258#1 78117258#2 -179061671 -179061659 -179061645 179061707#0 179061707#1 -179739481 -179061697"/>
    </vehicle>
    <vehicle id="4" depart="4.00">
        <route edges="205581466#1 190682782#6 190682782#7 78117258#2 -179061671 -179061659"/>
    </vehicle>
    <vehicle id="5" depart="5.00">
        <route edges="179061697 179739481 179061710#0 179061710#1 179061645 179061659 78112917#0 78112917#1 380627284#4 380627284#5 78098364#1 78098364#2 179061741#0 217050242#9"/>
    </vehicle>
    <vehicle id="6" depart="6.00">
        <route edges="-179061659 78104772 1103886702 179739481 179061710#0 179061710#1 179061645 179061659 179061671"/>
    </vehicle>
    <vehicle id="7" depart="7.00">
        <route edges="78098364#1 190682782#5 190682782#6 190682782#7 190682782#8 78106531#1 78106531#2 380627284#2 380627284#3"/>
    </vehicle>
    <vehicle id="8" depart="8.00">
        <route edges="179061697 179739481 179061710#0 179061710#1 179061645 179061659 78112917#0 78112917#1 380627284#4 380627284#5 380627284#6"/>
    </vehicle>
    <vehicle id="9" depart="9.00">
        <route edges="78111307#6 -179061659 -179061645"/>
    </vehicle>
    <vehicle id="10" depart="10.00">
        <route edges="78106531#3 995426421#1 995426421#2 995426421#3 995426421#4 78098364#0 78098364#1 78098364#2 -179061667 78106219#0 78106219#1"/>
    </vehicle>
    <vehicle id="11" depart="11.00">
        <route edges="190682782#5 190682782#6 190682782#7 78117258#2 -179061671 -179061659 78104772 1103886702 179739481 179061710#0 179061710#1 179061645 179061659"/>
    </vehicle>
    <vehicle id="12" depart="12.00">
        <route edges="995426421#2 995426421#3 995426421#4 78098364#0 78098364#1 78098364#2 -179061667 78106219#0 190682782#4"/>
    </vehicle>
    <vehicle id="13" depart="13.00">
        <route edges="-179061697"/>
    </vehicle>
    <vehicle id="14" depart="14.00">
        <route edges="78112917#1 380627284#4 205581466#1 190682782#6 190682782#7 78117258#2 656972743#0"/>
    </vehicle>
    <vehicle id="15" depart="15.00">
        <route edges="78111307#6 179061671 179061665 78106531#0"/>
    </vehicle>
    <vehicle id="16" depart="16.00">
        <route edges="380627284#3 78112917#2 995426421#3 995426421#4"/>
    </vehicle>
    <vehicle id="17" depart="17.00">
        <route edges="190682782#7 190682782#8 78106531#1 78106531#2 380627284#2 380627284#3 380627284#4"/>
    </vehicle>
    <vehicle id="18" depart="18.00">
        <route edges="78112917#0 78112917#1 78112917#2 995426421#3 995426421#4 78098364#0"/>
    </vehicle>
    <vehicle id="19" depart="19.00">
        <route edges="78112917#2 995426421#3 205581466#0 380627284#5"/>
    </vehicle>
    <vehicle id="21" depart="21.00">
        <route edges="179061707#0 179061707#1 -179739481 -179061697 -179061667 78106219#0 190682782#4 78098364#2 179061697 179739481 179061710#0 179061710#1"/>
    </vehicle>
    <vehicle id="22" depart="22.00">
        <route edges="-179061671 -179061659 -179061645 179061707#0"/>
    </vehicle>
    <vehicle id="23" depart="23.00">
        <route edges="-179739481 -179061697 -179061667 78106219#0 190682782#4 78098364#2 179061697 179739481 179061710#0 179061710#1"/>
    </vehicle>
    <vehicle id="24" depart="24.00">
        <route edges="78098364#0 78098364#1 190682782#5 190682782#6"/>
    </vehicle>
    <vehicle id="25" depart="25.00">
        <route edges="190682782#6 190682782#7 78117258#2 656972743#0 217050242#6 78111307#6 179061671"/>
    </vehicle>
    <vehicle id="26" depart="26.00">
        <route edges="179061710#0 179061710#1 179061645 179061659 179061671 179061665 78106531#0 78106531#1 78106531#2 78106531#3 995426421#1 995426421#2"/>
    </vehicle>
    <vehicle id="27" depart="27.00">
        <route edges="78098364#1 190682782#5 190682782#6 190682782#7 78117258#2 656972743#0"/>
    </vehicle>
    <vehicle id="28" depart="28.00">
        <route edges="179061665 78106531#0"/>
    </vehicle>
    <vehicle id="29" depart="29.00">
        <route edges="179061665 78106531#0 78106531#1 78106531#2 380627284#2 380627284#3 380627284#4 205581466#1 190682782#6 190682782#7"/>
    </vehicle>
    <vehicle id="30" depart="30.00">
        <route edges="995426421#4 78098364#0 78098364#1"/>
    </vehicle>
    <vehicle id="31" depart="31.00">
        <route edges="380627284#4 380627284#5 78098364#1 78098364#2 -179061667 78106219#0"/>
    </vehicle>
    <vehicle id="32" depart="32.00">
        <route edges="78112917#1 380627284#4 205581466#1 190682782#6 190682782#7 190682782#8 78106531#1 78106531#2 78106531#3"/>
    </vehicle>
    <vehicle id="33" depart="33.00">
        <route edges="179061707#0 179061707#1 -179739481 -179061697 -179061667 78106219#0 190682782#4 190682782#5 190682782#6 190682782#7 78117258#2 -179061671 -179061659"/>
    </vehicle>
    <vehicle id="34" depart="34.00">
        <route edges="179739481 179061710#0"/>
    </vehicle>
    <vehicle id="35" depart="35.00">
        <route edges="179061697 179739481 179061710#0 179061710#1 179061645 179061659 179061671 179061665 78106531#0 78106531#1 78106531#2 78106531#3 995426421#1 995426421#2"/>
    </vehicle>
    <vehicle id="37" depart="37.00">
        <route edges="78098364#1 190682782#5 190682782#6 190682782#7 190682782#8"/>
    </vehicle>
    <vehicle id="38" depart="38.00">
        <route edges="78117258#1 78117258#2 656972743#0 217050242#6"/>
    </vehicle>
    <vehicle id="39" depart="39.00">
        <route edges="179061710#0 179061710#1 179061645 179061659 78112917#0 190682782#7 78117258#2 -179061671 -179061659 -179061645 179061707#0 179061707#1"/>
    </vehicle>
    <vehicle id="40" depart="40.00">
        <route edges="380627284#4 380627284#5 78098364#1 78098364#2 179061697 179739481 179061710#0"/>
    </vehicle>
    <vehicle id="42" depart="42.00">
        <route edges="190682782#8 78106531#1 78106531#2 380627284#2 380627284#3 380627284#4 380627284#5 78098364#1 78098364#2 179061697"/>
    </vehicle>
    <vehicle id="43" depart="43.00">
        <route edges="995426421#4 78098364#0 78098364#1 78098364#2 179061741#0 217050242#9"/>
    </vehicle>
    <vehicle id="45" depart="45.00">
        <route edges="-179739481 -179061697 -179061667 78106219#0 190682782#4 190682782#5 190682782#6 78112917#1 78112917#2 995426421#3 995426421#4 78098364#0"/>
    </vehicle>
    <vehicle id="46" depart="46.00">
        <route edges="78106531#3 995426421#1 995426421#2 995426421#3 205581466#0 205581466#1"/>
    </vehicle>
    <vehicle id="47" depart="47.00">
        <route edges="-179061667 78106219#0 190682782#4 190682782#5 190682782#6 190682782#7"/>
    </vehicle>
    <vehicle id="48" depart="48.00">
        <route edges="995426421#4 78098364#0 78098364#1 190682782#5 190682782#6 190682782#7 190682782#8 78106531#1 78106531#2 380627284#2"/>
    </vehicle>
    <vehicle id="49" depart="49.00">
        <route edges="995426421#3 205581466#0 205581466#1 190682782#6 190682782#7 78117258#2 -179061671 -179061659 78104772 78116626#0"/>
    </vehicle>
</routes>
