<?xml version="1.0" encoding="UTF-8"?>

<!-- generated on 2023-12-15 04:52:40.198125 by randomTrips.py v1_18_0+0000-03ecfdea036
<configuration>
    <net-file value="E:\Programas\Aplicaciones\Sumo\tools\InstanciaMediana.net.xml"/>
    <route-file value="E:\Programas\Aplicaciones\Sumo\tools\routesMediana.rou.xml"/>
    <end value="50.0"/>
    <period value="1.0"/>
</configuration>
-->

<!-- generated on 2023-12-15 04:52:40 by Eclipse SUMO duarouter Version 1.18.0
<configuration xmlns:xsi="http://www.w3.org/2001/XMLSchema-instance" xsi:noNamespaceSchemaLocation="http://sumo.dlr.de/xsd/duarouterConfiguration.xsd">

    <input>
        <net-file value="E:\Programas\Aplicaciones\Sumo\tools\InstanciaMediana.net.xml"/>
        <route-files value="trips.trips.xml"/>
    </input>

    <output>
        <output-file value="E:\Programas\Aplicaciones\Sumo\tools\routesMediana.rou.xml"/>
        <alternatives-output value="NUL"/>
    </output>

    <time>
        <begin value="0"/>
        <end value="50.0"/>
    </time>

    <report>
        <no-warnings value="true"/>
        <ignore-errors value="true"/>
        <no-step-log value="true"/>
    </report>

</configuration>
-->

<routes xmlns:xsi="http://www.w3.org/2001/XMLSchema-instance" xsi:noNamespaceSchemaLocation="http://sumo.dlr.de/xsd/routes_file.xsd">
    <vehicle id="0" depart="0.00">
        <route edges="78102715#1 78102715#2 78102715#3 78102715#4 78102715#5 78102715#6 78102715#7 78106531#0 190682782#9 190682782#10 995426422#2 995426422#3 -179061677"/>
    </vehicle>
    <vehicle id="1" depart="1.00">
        <route edges="205581466#1 190682782#6 190682782#7 190682782#8 190682782#9 190682782#10"/>
    </vehicle>
    <vehicle id="2" depart="2.00">
        <route edges="78108615#0 450903750#2 78111307#1 450903749#3 449593807 78105744#0"/>
    </vehicle>
    <vehicle id="3" depart="3.00">
        <route edges="78116626#1 78116626#2 1044584957#5"/>
    </vehicle>
    <vehicle id="4" depart="4.00">
        <route edges="450903750#5 454296737#5 78110528 549192578#0 78102715#1 78102715#2 78102715#3 78102715#4 78102715#5 78102715#6 78102715#7 -179061665 -179061671 -179061659 -179061645 179061707#0 179061707#1 -179739481 -179061697"/>
    </vehicle>
    <vehicle id="6" depart="6.00">
        <route edges="-179061677 -179061665 656972743#0 656972743#1 656972743#2 78109287#10 78109287#11 454296737#1 454296737#2 454296737#3 454296737#4 179062646"/>
    </vehicle>
    <vehicle id="7" depart="7.00">
        <route edges="78102715#3 78102715#4 78102715#5 78102715#6 217050242#4 217050242#5 656972743#1"/>
    </vehicle>
    <vehicle id="9" depart="9.00">
        <route edges="78111307#2 78111307#3 78111307#4 78111307#5 78111307#6 -179061659 -179061645"/>
    </vehicle>
    <vehicle id="10" depart="10.00">
        <route edges="78111307#1 78111307#2 78111307#3 78111307#4 78109287#9 78109287#10 78102715#6 78102715#7 78106531#0 78106531#1"/>
    </vehicle>
    <vehicle id="11" depart="11.00">
        <route edges="380627284#2 78117258#1 78117258#2 -179061671 -179061659 78104772 1103886702 179739481 179061710#0"/>
    </vehicle>
    <vehicle id="12" depart="12.00">
        <route edges="995426421#2 995426421#3 205581466#0 205581466#1 190682782#6 190682782#7 190682782#8 78106531#1 78106531#2 380627284#2"/>
    </vehicle>
    <vehicle id="13" depart="13.00">
        <route edges="1044584957#5 175649854#0"/>
    </vehicle>
    <vehicle id="14" depart="14.00">
        <route edges="78112357#2 454415692#0 454415692#1 454296737#2 454296737#3 454296737#4 454296737#5 78110528 549192578#0 549192578#1 455830896#0 455830896#1 442200086#0 78113652 78099447#0 78099447#1"/>
    </vehicle>
    <vehicle id="15" depart="15.00">
        <route edges="78111307#1 78111307#2 78111307#3 78111307#4 78109287#9 78109287#10"/>
    </vehicle>
    <vehicle id="16" depart="16.00">
        <route edges="549192578#0 78102715#1 78102715#2 78102715#3 78102715#4 78102715#5 78102715#6 78102715#7 179061677 1044580300 455836462 1044580301#0 1044580301#1 1219108106 78115060#0 78115060#1 380627284#0 995426422#1"/>
    </vehicle>
    <vehicle id="17" depart="17.00">
        <route edges="450903749#1 450903749#2 78111307#2 78111307#3 78111307#4 78109287#9 656972743#3"/>
    </vehicle>
    <vehicle id="18" depart="18.00">
        <route edges="78111307#6 -179061659 78104772 78116626#0 78116626#1 78116626#2 78116626#3 78116626#4 450903749#4 179062645#0 179062645#1 78099777#3"/>
    </vehicle>
    <vehicle id="19" depart="19.00">
        <route edges="78112917#0 190682782#7 78117258#2 656972743#0 656972743#1 656972743#2 656972743#3 656972743#4 656972743#5 656972743#6 656972743#7 455830896#0 455830896#1 442200086#0 78113652 707375773"/>
    </vehicle>
    <vehicle id="20" depart="20.00">
        <route edges="78106531#1 78106531#2 380627284#2 78117258#1 78117258#2 179061665 179061677 1044580300"/>
    </vehicle>
    <vehicle id="21" depart="21.00">
        <route edges="179739481 179061710#0 179061710#1 179061645 179061659 179061671 179061665 78106531#0 190682782#9 190682782#10 995426422#2 995426422#3 179061730 217050242#3"/>
    </vehicle>
    <vehicle id="22" depart="22.00">
        <route edges="1044584957#3 78111307#4 78111307#5 78111307#6 78112917#0 78112917#1 380627284#4 205581466#1 190682782#6"/>
    </vehicle>
    <vehicle id="24" depart="24.00">
        <route edges="78102715#0 78102715#1 78102715#2 450903749#1 450903749#2 450903749#3 449593807"/>
    </vehicle>
    <vehicle id="25" depart="25.00">
        <route edges="449593807 78108615#0 450903750#2 78111307#1 78111307#2 450903755#3 450903755#4 450903755#5 450903755#6 179062648#0 179062648#1"/>
    </vehicle>
    <vehicle id="26" depart="26.00">
        <route edges="203959698#1 78099777#0 78099777#1 78099777#2 78099777#3 456440946#6 450903755#0 450903755#1 450903755#2 450903755#3 450903755#4 78102715#4 78102715#5 78102715#6 78102715#7 78106531#0 190682782#9 190682782#10 995426422#2 78117718#0 78117718#1"/>
    </vehicle>
    <vehicle id="27" depart="27.00">
        <route edges="78102715#3 450903755#5 450903755#6 454296737#3 454296737#4 454296737#5 78110528 549192578#0 549192578#1 455830896#0 455830896#1 442200086#0 442200086#1 203959698#0 203959698#1 78099777#0 78099777#1"/>
    </vehicle>
    <vehicle id="28" depart="28.00">
        <route edges="179061710#1 179061645 179061659 78112917#0 190682782#7 78117258#2 656972743#0 217050242#6 217050242#7 78116626#1 78116626#2 78116626#3 78116626#4 449593807 78108615#0 78108615#1"/>
    </vehicle>
    <vehicle id="29" depart="29.00">
        <route edges="179061710#0 179061710#1 179061645 179061659 78112917#0 190682782#7 78117258#2 656972743#0 656972743#1 656972743#2 656972743#3 656972743#4 656972743#5 450903749#2"/>
    </vehicle>
    <vehicle id="30" depart="30.00">
        <route edges="995426422#3 179061730 454296737#0 454296737#1 454296737#2 454296737#3 450903749#0 78102715#3"/>
    </vehicle>
    <vehicle id="31" depart="31.00">
        <route edges="656972743#2 656972743#3 1044584957#3 1044584957#4 78116626#3 78116626#4 449593807 78105744#0 78105744#1"/>
    </vehicle>
    <vehicle id="32" depart="32.00">
        <route edges="78112357#1 78112357#2 454415692#0 454415692#1 454296737#2 454296737#3 454296737#4 454296737#5 78110528"/>
    </vehicle>
    <vehicle id="33" depart="33.00">
        <route edges="179739481 179061710#0 179061710#1 179061645 179061659 78112917#0 190682782#7 78117258#2 -179061671 -179061659 -179061645 179061707#0 179061707#1 -179739481 -179061697"/>
    </vehicle>
    <vehicle id="34" depart="34.00">
        <route edges="217050242#7 78116626#1 78109287#8 78111307#5 78111307#6 78112917#0 78112917#1 380627284#4 205581466#1"/>
    </vehicle>
    <vehicle id="36" depart="36.00">
        <route edges="78113652 78099447#0 78099447#1 175650574#0 179062645#1 78099777#3 456440946#6 450903755#0 450903755#1 450903755#2 450903755#3 450903755#4 78102715#4 78102715#5 78102715#6 78102715#7 179061677 1044580300 319683135 319683134"/>
    </vehicle>
    <vehicle id="37" depart="37.00">
        <route edges="78102715#4 1044584957#2 656972743#4 656972743#5 656972743#6 656972743#7 455830896#0 455830896#1 442200086#0 442200086#1 203959698#0 203959698#1 78099777#0 78099777#1 78105255#7 450903750#0"/>
    </vehicle>
    <vehicle id="38" depart="38.00">
        <route edges="78117258#0 78117258#1 78117258#2 656972743#0 656972743#1 656972743#2 656972743#3 656972743#4 450903755#4 450903755#5"/>
    </vehicle>
    <vehicle id="39" depart="39.00">
        <route edges="203959698#1 78099777#0 78099777#1 78099777#2 78099777#3 456440946#6 450903755#0 450903755#1 450903755#2 450903755#3 450903755#4 78102715#4 78102715#5 78102715#6 78102715#7 78106531#0 190682782#9"/>
    </vehicle>
    <vehicle id="40" depart="40.00">
        <route edges="656972743#3 1044584957#3 78111307#4 78111307#5 78111307#6 78112917#0 78112917#1 78112917#2 995426421#3 205581466#0"/>
    </vehicle>
    <vehicle id="41" depart="41.00">
        <route edges="707375773 179062649 78099447#1 175650574#0 179062645#1 78099777#3 456440946#6 450903755#0 450903755#1 450903755#2 78111307#3 1044584957#4 78116626#3"/>
    </vehicle>
    <vehicle id="42" depart="42.00">
        <route edges="450903750#0 450903750#1 450903750#2 78111307#1 78111307#2 78111307#3 78111307#4 78111307#5 78111307#6 -179061659 78104772 1103886702 179739481"/>
    </vehicle>
    <vehicle id="44" depart="44.00">
        <route edges="1044584957#5 175649854#0 450903755#1 450903755#2 450903755#3 450903755#4 78102715#4 78102715#5 78102715#6 78102715#7 179061677 1044580300"/>
    </vehicle>
    <vehicle id="45" depart="45.00">
        <route edges="175649854#1 179062643 78105744#0 78105744#1 78099447#0 78099447#1 175650574#0 179062645#1 78099777#3 78099777#4"/>
    </vehicle>
    <vehicle id="46" depart="46.00">
        <route edges="78111091#0 78111091#1 450903749#0 78102715#3 78102715#4 78102715#5 78109287#11 450903752#0"/>
    </vehicle>
    <vehicle id="47" depart="47.00">
        <route edges="1044580301#1 1219108106 78115060#0 78115060#1 380627284#0 995426422#1 995426422#2 995426422#3 179061730 454296737#0 454296737#1 454296737#2 454296737#3 450903749#0 450903749#1 450903749#2"/>
    </vehicle>
    <vehicle id="49" depart="49.00">
        <route edges="995426422#0 995426422#1 995426422#2 995426422#3 179061730 454296737#0 454296737#1 454296737#2 454296737#3 454296737#4 454296737#5 78110528 549192578#0 549192578#1 455830896#0 455830896#1 442200086#0 78113652"/>
    </vehicle>
</routes>
