<?xml version="1.0" encoding="UTF-8"?>

<!-- generated on 2023-12-10 23:38:25.069084 by randomTrips.py v1_18_0+0000-03ecfdea036
<configuration>
    <net-file value="../bin/buenaverga.net.xml"/>
    <route-file value="routes.rou.xml"/>
    <fringe-factor value="0.1"/>
    <end value="100.0"/>
    <period value="0.1"/>
</configuration>
-->

<!-- generated on 2023-12-10 23:38:24 by Eclipse SUMO duarouter Version 1.18.0
<configuration xmlns:xsi="http://www.w3.org/2001/XMLSchema-instance" xsi:noNamespaceSchemaLocation="http://sumo.dlr.de/xsd/duarouterConfiguration.xsd">

    <input>
        <net-file value="../bin/buenaverga.net.xml"/>
        <route-files value="trips.trips.xml"/>
    </input>

    <output>
        <output-file value="routes.rou.xml"/>
        <alternatives-output value="NUL"/>
    </output>

    <time>
        <begin value="0"/>
        <end value="100.0"/>
    </time>

    <report>
        <no-warnings value="true"/>
        <ignore-errors value="true"/>
        <no-step-log value="true"/>
    </report>

</configuration>
-->

<routes xmlns:xsi="http://www.w3.org/2001/XMLSchema-instance" xsi:noNamespaceSchemaLocation="http://sumo.dlr.de/xsd/routes_file.xsd">
    <vehicle id="0" depart="0.00">
        <route edges="78102715#4 78102715#5 78102715#6 78102715#7 -179061665 -179061671 -179061659 -179061645 179061707#0 179061707#1 -179739481 -179061697 -179061667"/>
    </vehicle>
    <vehicle id="1" depart="0.10">
        <route edges="203959698#1 203959698#2 203959698#3 203959698#4 203959698#5 78114859#0 78114859#1 179062645#4 179062645#5 179062645#6 179062645#7"/>
    </vehicle>
    <vehicle id="3" depart="0.30">
        <route edges="78114859#3 78114859#4 78109287#4 78109287#5 78109287#6 179061741#2 175649854#0 175649854#1"/>
    </vehicle>
    <vehicle id="4" depart="0.40">
        <route edges="450903749#0 78102715#3 78102715#4 78102715#5 78102715#6 78102715#7 -179061665 -179061671"/>
    </vehicle>
    <vehicle id="5" depart="0.50">
        <route edges="179062645#6 179061638#5 78105255#1 78105255#2 78105255#3 78105255#4 78105255#5 78105255#6 78105255#7 450903750#0 450903750#1 450903750#2 450903750#3 656972743#7 455830896#0"/>
    </vehicle>
    <vehicle id="6" depart="0.60">
        <route edges="-179061667 -179061683#1 -179061683#0 -179061651 78113880#0 78113880#1 78109287#3 78109287#4 78109287#5 78109287#6 179061741#2 175649854#0 175649854#1 179062643"/>
    </vehicle>
    <vehicle id="7" depart="0.70">
        <route edges="78103394#0 78103394#1 376520422#0 78109287#6 78109287#7 78109287#8 78109287#9 78109287#10 78102715#6 78102715#7 -179061665 656972743#0"/>
    </vehicle>
    <vehicle id="8" depart="0.80">
        <route edges="179062645#6 179061638#5 78105255#1 78105255#2 78105255#3 78105255#4 78105255#5 78105255#6 78105255#7 450903750#0 78105744#1 78099447#0"/>
    </vehicle>
    <vehicle id="9" depart="0.90">
        <route edges="78109562#2 78109562#3 217050242#2 217050242#3 217050242#4 217050242#5 217050242#6 217050242#7 217050242#8 217050242#9 744364738 -179061683#1 -179061683#0 -179061651"/>
    </vehicle>
    <vehicle id="10" depart="1.00">
        <route edges="78109562#0 78109562#1 454415692#1 454296737#2 454296737#3 454296737#4 454296737#5 78110528 549192578#0 549192578#1 455830896#0 455830896#1 442200086#0 442200086#1 203959698#0 203959698#1 78099777#0 78099777#1 78105255#7"/>
    </vehicle>
    <vehicle id="11" depart="1.10">
        <route edges="217050242#8 179061741#1 78109287#7 78109287#8 78111307#5 78111307#6 -179061659 -179061645 179061707#0 179061707#1"/>
    </vehicle>
    <vehicle id="12" depart="1.20">
        <route edges="995426421#1 78117258#0 78117258#1 78117258#2 656972743#0 217050242#6 217050242#7"/>
    </vehicle>
    <vehicle id="13" depart="1.30">
        <route edges="175650574#1 78103394#0 78103394#1 376520422#0 376520422#1 449593808 217050242#12 78114859#6 -179061651 -179061657#1 -179061657#0 -179061661 179061638#0"/>
    </vehicle>
    <vehicle id="14" depart="1.40">
        <route edges="78112357#1 78112357#2 454415692#0 454415692#1 454296737#2 454296737#3 450903749#0 450903749#1 450903749#2 450903749#3 450903749#4 179062645#0 179062645#1 78099777#3"/>
    </vehicle>
    <vehicle id="15" depart="1.50">
        <route edges="78109562#1 454415692#1 1044584957#0 1044584957#1 1044584957#2 1044584957#3 1044584957#4 1044584957#5 226079999#0 226079999#1 226079999#2 226079999#3 78113880#3 775246444#0 179062645#5 78106247#1"/>
    </vehicle>
    <vehicle id="16" depart="1.60">
        <route edges="456440946#6 78103394#0 78103394#1 376520422#0 376520422#1 449593808 217050242#12 78114859#6 179061738#0 179061738#1 179061738#2 995426421#7"/>
    </vehicle>
    <vehicle id="17" depart="1.70">
        <route edges="380627284#1 380627284#2 78117258#1 78117258#2 656972743#0 656972743#1 656972743#2"/>
    </vehicle>
    <vehicle id="18" depart="1.80">
        <route edges="78111307#1 450903749#3 450903749#4 179062645#0 179062645#1 179062645#2 179062645#3 179062645#4 179062645#5 179062645#6 179062645#7 78102540#1"/>
    </vehicle>
    <vehicle id="19" depart="1.90">
        <route edges="78112917#1 380627284#4 380627284#5 380627284#6 380627284#7 380627284#8 78119770#1 78119770#2 78113880#0 78113880#1 78113880#2 78113880#3 775246444#0 775246444#1"/>
    </vehicle>
    <vehicle id="21" depart="2.10">
        <route edges="179062648#0 78109562#1 454415692#1 454296737#2 454296737#3 454296737#4 454296737#5 78110528 549192578#0 549192578#1 455830896#0 455830896#1 442200086#0 442200086#1 203959698#0 203959698#1 203959698#2 203959698#3 203959698#4 203959698#5"/>
    </vehicle>
    <vehicle id="22" depart="2.20">
        <route edges="1219108106 78115060#0 78115060#1 380627284#0 995426422#1 995426422#2 995426422#3 179061730 454296737#0 454296737#1 454296737#2 454296737#3 454296737#4 454296737#5 78110528 549192578#0 549192578#1 455830896#0 455830896#1 442200086#0 442200086#1 179062649"/>
    </vehicle>
    <vehicle id="23" depart="2.30">
        <route edges="179061638#2 179061638#3 456440946#1 456440946#2 456440946#3 456440946#4 456440946#5 456440946#6 450903755#0 175649854#1 179062643 78108615#0 450903750#2 450903750#3 656972743#7 455830896#0 455830896#1 442200086#0 442200086#1 203959698#0 203959698#1 203959698#2"/>
    </vehicle>
    <vehicle id="24" depart="2.40">
        <route edges="78102715#3 78102715#4 1044584957#2 1044584957#3 1044584957#4 1044584957#5 226079999#0 226079999#1 226079999#2 226079999#3 226079999#4 226079999#5 226079999#6"/>
    </vehicle>
    <vehicle id="25" depart="2.50">
        <route edges="376520422#0 78109287#6 179061741#2 226079999#0 226079999#1 78103558#1 78103558#2 179062645#3"/>
    </vehicle>
    <vehicle id="26" depart="2.60">
        <route edges="190682782#8 190682782#9 190682782#10 995426422#2 78117718#0"/>
    </vehicle>
    <vehicle id="27" depart="2.70">
        <route edges="78102715#7 -179061665 -179061671 -179061659 -179061645 179061707#0 179061707#1 -179739481 -179061697 179061741#0 179061741#1 179061741#2 226079999#0 226079999#1 78103558#1 456440946#5 78099777#4"/>
    </vehicle>
    <vehicle id="28" depart="2.80">
        <route edges="179061716#2 380627284#10 78105349#1 78105349#2 179061638#0 179061638#1 78109287#1 78109287#2 78113880#2 78113880#3 775246444#0 179062645#5 78106247#1"/>
    </vehicle>
    <vehicle id="29" depart="2.90">
        <route edges="179061716#0 179061716#1 190682782#1 190682782#2 190682782#3 190682782#4 190682782#5 190682782#6 190682782#7 190682782#8 190682782#9 190682782#10 995426422#2 78117718#0 78117718#1 1044580301#0 1044580301#1 1219108106 78115060#0 78115060#1 380627284#0 380627284#1"/>
    </vehicle>
    <vehicle id="30" depart="3.00">
        <route edges="995426422#2 995426422#3 179061730 454296737#0 454296737#1 454296737#2 454296737#3 450903749#0 78102715#3 78102715#4"/>
    </vehicle>
    <vehicle id="31" depart="3.10">
        <route edges="656972743#4 656972743#5 450903749#2 450903749#3 450903749#4 179062645#0 179062645#1 179062645#2 179062645#3 179062645#4 179062645#5 179062645#6 179061638#5 78105255#1 78105255#2"/>
    </vehicle>
    <vehicle id="32" depart="3.20">
        <route edges="78111307#6 -179061659 78104772 78116626#0 78116626#1 78109287#8 78109287#9 78109287#10 78109287#11"/>
    </vehicle>
    <vehicle id="33" depart="3.30">
        <route edges="179062648#0 78109562#1 454415692#1 1044584957#0 1044584957#1 78102715#5 78102715#6 78102715#7 78106531#0 190682782#9 190682782#10 995426422#2 995426422#3 -179061677"/>
    </vehicle>
    <vehicle id="34" depart="3.40">
        <route edges="217050242#15 179061638#1 78109287#1 78109287#2 78109287#3 78114859#5 78114859#6 179061738#0 190682782#3 190682782#4 190682782#5 190682782#6 190682782#7 190682782#8"/>
    </vehicle>
    <vehicle id="35" depart="3.50">
        <route edges="179062645#3 78114859#2 78114859#3 78114859#4 78114859#5 78114859#6 179061738#0 179061738#1 179061738#2 995426421#7 78119770#0"/>
    </vehicle>
    <vehicle id="36" depart="3.60">
        <route edges="78113880#2 226079999#4 78106247#3 78106247#4 217050242#15"/>
    </vehicle>
    <vehicle id="37" depart="3.70">
        <route edges="78103558#0 226079999#2 78114859#4 78114859#5 78114859#6 179061683#0 179061683#1 179061667 179061697 179739481 179061710#0 179061710#1 179061645 179061659 78112917#0 78112917#1 380627284#4 380627284#5"/>
    </vehicle>
    <vehicle id="38" depart="3.80">
        <route edges="78116626#1 78109287#8 78109287#9 78109287#10 78109287#11 450903752#0 450903752#1"/>
    </vehicle>
    <vehicle id="39" depart="3.90">
        <route edges="190682782#7 190682782#8 190682782#9 190682782#10"/>
    </vehicle>
    <vehicle id="40" depart="4.00">
        <route edges="656972743#6 450903750#4 78102715#2 78102715#3 78102715#4 1044584957#2 1044584957#3 78111307#4 78111307#5 78111307#6 78112917#0 190682782#7"/>
    </vehicle>
    <vehicle id="41" depart="4.10">
        <route edges="78098364#1 78098364#2 179061741#0 179061741#1 179061741#2 226079999#0 226079999#1 226079999#2 78114859#4 78114859#5"/>
    </vehicle>
    <vehicle id="42" depart="4.20">
        <route edges="380627284#7 380627284#8 78119770#1 78119770#2 78113880#0 78113880#1 78113880#2 78113880#3 775246444#0 179062645#5 179062645#6"/>
    </vehicle>
    <vehicle id="45" depart="4.50">
        <route edges="179061638#5 78105255#1 78106247#0 179062645#6 179062645#7 78102540#1 78102540#2 78102540#3 78102540#4"/>
    </vehicle>
    <vehicle id="46" depart="4.60">
        <route edges="78109287#6 179061741#2 175649854#0 450903755#1 450903755#2 450903755#3 450903755#4 450903755#5 450903755#6 454296737#3 450903749#0"/>
    </vehicle>
    <vehicle id="47" depart="4.70">
        <route edges="1044584957#1 1044584957#2 1044584957#3 1044584957#4 1044584957#5 226079999#0 376520422#0 376520422#1 449593808 217050242#12 78114859#6 179061738#0 179061738#1 380627284#8 380627284#9 380627284#10"/>
    </vehicle>
    <vehicle id="49" depart="4.90">
        <route edges="995426421#6 995426421#7 78119770#0 78119770#1 190682782#2 190682782#3 190682782#4 190682782#5 190682782#6 78112917#1"/>
    </vehicle>
    <vehicle id="50" depart="5.00">
        <route edges="-179061657#0 -179061661 179061638#0 179061638#1 78109287#1 78109287#2 78109287#3 78114859#5 78114859#6 179061683#0 179061683#1 78106219#0 78106219#1"/>
    </vehicle>
    <vehicle id="51" depart="5.10">
        <route edges="78105255#1 78106247#0 78106247#1 456440946#2 456440946#3 456440946#4 456440946#5 456440946#6"/>
    </vehicle>
    <vehicle id="52" depart="5.20">
        <route edges="190682782#8 190682782#9 190682782#10 995426422#2 995426422#3 179061730 454296737#0 454296737#1 1044584957#0 1044584957#1 78102715#5"/>
    </vehicle>
    <vehicle id="53" depart="5.30">
        <route edges="179061638#5 78105255#1 78105255#2 78105255#3 78105255#4 78105255#5 78105255#6 78105255#7 450903750#0 450903750#1 450903750#2 78111307#1 450903749#3 450903749#4"/>
    </vehicle>
    <vehicle id="55" depart="5.50">
        <route edges="78113880#1 78109287#3 78114859#5 78114859#6 179061738#0 190682782#3 190682782#4 190682782#5 190682782#6 190682782#7"/>
    </vehicle>
    <vehicle id="56" depart="5.60">
        <route edges="454415692#0 454415692#1 1044584957#0 1044584957#1 1044584957#2 1044584957#3 1044584957#4 1044584957#5 226079999#0 376520422#0 376520422#1 449593808 217050242#12 78114859#6 179061738#0"/>
    </vehicle>
    <vehicle id="57" depart="5.70">
        <route edges="78116626#1 78116626#2 1044584957#5 226079999#0 376520422#0 376520422#1 449593808 217050242#12 78114859#6 -179061651 78113880#0"/>
    </vehicle>
    <vehicle id="58" depart="5.80">
        <route edges="217050242#1 217050242#2 454296737#0 454296737#1 454296737#2 454296737#3 450903749#0 78102715#3 78102715#4"/>
    </vehicle>
    <vehicle id="59" depart="5.90">
        <route edges="78099777#4 78103394#1 376520422#0 78109287#6 78109287#7 78109287#8 78111307#5 78111307#6 -179061659 -179061645 179061707#0"/>
    </vehicle>
    <vehicle id="61" depart="6.10">
        <route edges="78109287#11 454296737#1 1044584957#0 1044584957#1 1044584957#2 1044584957#3 1044584957#4 1044584957#5 226079999#0 226079999#1 226079999#2 226079999#3 78113880#3 456440946#3 456440946#4"/>
    </vehicle>
    <vehicle id="62" depart="6.20">
        <route edges="-1044580300 179061730 217050242#3"/>
    </vehicle>
    <vehicle id="63" depart="6.30">
        <route edges="-179061661 179061638#0 179061638#1 78109287#1 78109287#2 78109287#3 78109287#4 78109287#5 78109287#6 78109287#7 78109287#8 78109287#9 78109287#10 78102715#6 78102715#7 78106531#0 78106531#1 78106531#2 380627284#2 78117258#1"/>
    </vehicle>
    <vehicle id="64" depart="6.40">
        <route edges="78113880#2 78113880#3 456440946#3 456440946#4 456440946#5 456440946#6 450903755#0 175649854#1 179062643 78108615#0 450903750#2 78111307#1 78111307#2"/>
    </vehicle>
    <vehicle id="65" depart="6.50">
        <route edges="217050242#12 217050242#13 78113880#1 78109287#3 78109287#4 78109287#5 78109287#6 78109287#7 78109287#8 78109287#9 78109287#10 78109287#11 454296737#1 1044584957#0"/>
    </vehicle>
    <vehicle id="66" depart="6.60">
        <route edges="78113880#2 226079999#4 78106247#3 78109287#2 78109287#3 78114859#5 78114859#6 179061738#0 179061738#1 380627284#8 78119770#1"/>
    </vehicle>
    <vehicle id="67" depart="6.70">
        <route edges="175649854#1 179062643 78108615#0 450903750#2 78111307#1 78111307#2 78111307#3 78111307#4 78109287#9 78109287#10 78109287#11 454296737#1"/>
    </vehicle>
    <vehicle id="68" depart="6.80">
        <route edges="1044584957#3 78111307#4 78111307#5 78111307#6 179061671 179061665 179061677 1044580300 455836462 1044580301#0 1044580301#1 78107796"/>
    </vehicle>
    <vehicle id="69" depart="6.90">
        <route edges="78108615#0 450903750#2 78111307#1 450903749#3 450903749#4 179062645#0 175650574#1 78103394#0 78103394#1 376520422#0 376520422#1 449593808 217050242#12 78114859#6 179061738#0 179061738#1 380627284#8 380627284#9 380627284#10 78105349#1 78105349#2 179061661"/>
    </vehicle>
    <vehicle id="70" depart="7.00">
        <route edges="450903755#5 78106496 1044584957#1 78102715#5 78102715#6 217050242#4 217050242#5 656972743#1 656972743#2"/>
    </vehicle>
    <vehicle id="71" depart="7.10">
        <route edges="190682782#7 78117258#2 -179061671 -179061659 -179061645 179061707#0 179061707#1 -179739481 -179061697 -179061667 -179061683#1 -179061683#0 -179061651 78113880#0 78113880#1"/>
    </vehicle>
    <vehicle id="72" depart="7.20">
        <route edges="450903749#1 450903749#2 450903749#3 450903749#4 179062645#0 179062645#1 179062645#2 179062645#3 179062645#4"/>
    </vehicle>
    <vehicle id="73" depart="7.30">
        <route edges="549192578#0 549192578#1 455830896#0 455830896#1 442200086#0 78113652 78099447#0 78099447#1 175650574#0 179062645#1 179062645#2 179062645#3 179062645#4 179062645#5 78106247#1"/>
    </vehicle>
    <vehicle id="74" depart="7.40">
        <route edges="179062645#0 175650574#1 78103394#0 78103394#1 376520422#0 376520422#1 449593808 217050242#12 217050242#13 217050242#14"/>
    </vehicle>
    <vehicle id="76" depart="7.60">
        <route edges="450903750#1 450903750#2 78111307#1 450903749#3 450903749#4 179062645#0 179062645#1 179062645#2 179062645#3 179062645#4 179062645#5 179062645#6 179062645#7 78102540#1 456440946#0"/>
    </vehicle>
    <vehicle id="77" depart="7.70">
        <route edges="179061657#0 179061657#1 179061651 179061683#0 179061683#1 78106219#0 190682782#4 78098364#2 179061741#0 179061741#1 179061741#2 175649854#0 175649854#1 179062643 78108615#0 450903750#2 450903750#3 450903750#4 450903750#5 179062646"/>
    </vehicle>
    <vehicle id="78" depart="7.80">
        <route edges="217050242#7 217050242#8 217050242#9 744364738 78106219#0 190682782#4 78098364#2"/>
    </vehicle>
    <vehicle id="80" depart="8.00">
        <route edges="1044584957#4 78116626#3 450903755#2 450903755#3 656972743#5 656972743#6 450903750#4 78102715#2"/>
    </vehicle>
    <vehicle id="81" depart="8.10">
        <route edges="179062648#0 78109562#1 454415692#1 1044584957#0 1044584957#1 78102715#5 78102715#6 78102715#7 179061677 1044580300 455836462 1044580301#0 1044580301#1 1219108106 78115060#0"/>
    </vehicle>
    <vehicle id="82" depart="8.20">
        <route edges="78112917#0 190682782#7 78117258#2 656972743#0 656972743#1 656972743#2 656972743#3 1044584957#3 1044584957#4"/>
    </vehicle>
    <vehicle id="83" depart="8.30">
        <route edges="179739481 179061710#0 179061710#1 179061645 179061659 78112917#0 78112917#1 380627284#4 380627284#5 78098364#1 78098364#2 179061741#0 179061741#1 179061741#2 226079999#0 226079999#1 78103558#1 78103558#2 78103558#3 78103558#4"/>
    </vehicle>
    <vehicle id="84" depart="8.40">
        <route edges="179062645#4 775246444#1 78105255#4 78114859#1 78114859#2 78114859#3 78114859#4 78114859#5 78114859#6 179061683#0 179061683#1 179061667 179061697 179739481 179061710#0 179061710#1 179061645 179061659 179061671 179061665"/>
    </vehicle>
    <vehicle id="86" depart="8.60">
        <route edges="450903755#4 78102715#4 1044584957#2 1044584957#3 1044584957#4 1044584957#5 226079999#0 376520422#0 376520422#1 449593808 217050242#12 217050242#13 78113880#1 78109287#3"/>
    </vehicle>
    <vehicle id="87" depart="8.70">
        <route edges="78109562#1 454415692#1 1044584957#0 1044584957#1 1044584957#2 1044584957#3 78111307#4 78111307#5 217050242#7 217050242#8 179061741#1"/>
    </vehicle>
    <vehicle id="88" depart="8.80">
        <route edges="179061638#0 179061638#1 78109287#1 78109287#2 78109287#3 78109287#4 78109287#5 78109287#6 179061741#2 175649854#0 175649854#1 179062643 78108615#0 450903750#2 78111307#1 450903749#3"/>
    </vehicle>
    <vehicle id="89" depart="8.90">
        <route edges="450903749#1 450903749#2 78111307#2 78111307#3 1044584957#4 78116626#3 450903755#2"/>
    </vehicle>
    <vehicle id="90" depart="9.00">
        <route edges="78106247#1 456440946#2 456440946#3 456440946#4 456440946#5 456440946#6 450903755#0 450903755#1 450903755#2 78111307#3 78111307#4 78111307#5 78111307#6 -179061659 78104772"/>
    </vehicle>
    <vehicle id="91" depart="9.10">
        <route edges="995426422#0 995426422#1 995426422#2 995426422#3 -179061677 -179061665 -179061671 -179061659 -179061645 179061707#0 179061707#1 -179739481 -179061697 -179061667 -179061683#1 -179061683#0 -179061651 -179061657#1 -179061657#0 -179061661 179061638#0 179061638#1"/>
    </vehicle>
    <vehicle id="92" depart="9.20">
        <route edges="380627284#8 78119770#1 78119770#2 78113880#0 78113880#1 78109287#3 78109287#4 78109287#5 78109287#6 78109287#7 78109287#8 78111307#5 217050242#7 217050242#8"/>
    </vehicle>
    <vehicle id="93" depart="9.30">
        <route edges="78112917#1 380627284#4 380627284#5 380627284#6 380627284#7 380627284#8 78119770#1 190682782#2"/>
    </vehicle>
    <vehicle id="94" depart="9.40">
        <route edges="179061741#0 179061741#1 179061741#2 175649854#0 175649854#1 179062643 78108615#0 450903750#2 450903750#3 450903750#4"/>
    </vehicle>
    <vehicle id="95" depart="9.50">
        <route edges="450903749#0 450903749#1 656972743#6 656972743#7 455830896#0 455830896#1 442200086#0 442200086#1 203959698#0 203959698#1 203959698#2"/>
    </vehicle>
    <vehicle id="96" depart="9.60">
        <route edges="190682782#2 190682782#3 190682782#4 78098364#2 179061741#0 179061741#1 179061741#2 175649854#0 450903755#1 78116626#4"/>
    </vehicle>
    <vehicle id="97" depart="9.70">
        <route edges="450903750#2 78111307#1 78111307#2 78111307#3 78111307#4 78111307#5 78111307#6 78112917#0 78112917#1"/>
    </vehicle>
    <vehicle id="98" depart="9.80">
        <route edges="656972743#2 78109287#10 78102715#6 78102715#7 179061677 1044580300"/>
    </vehicle>
    <vehicle id="100" depart="10.00">
        <route edges="995426421#5 995426421#6 995426421#7 78119770#0 78119770#1 190682782#2 190682782#3 190682782#4 190682782#5 190682782#6 190682782#7 190682782#8 78106531#1 78106531#2 78106531#3 995426421#1 78117258#0"/>
    </vehicle>
    <vehicle id="101" depart="10.10">
        <route edges="78112357#2 454415692#0 454415692#1 1044584957#0 1044584957#1 1044584957#2 1044584957#3 1044584957#4 1044584957#5 226079999#0 376520422#0 376520422#1 449593808 217050242#12 217050242#13 217050242#14 78106247#5 179061716#0 179061716#1"/>
    </vehicle>
    <vehicle id="102" depart="10.20">
        <route edges="454296737#1 454296737#2 454296737#3 450903749#0 450903749#1 450903749#2 450903749#3 450903749#4 179062645#0 179062645#1 179062645#2 179062645#3 179062645#4"/>
    </vehicle>
    <vehicle id="103" depart="10.30">
        <route edges="380627284#7 380627284#8 78119770#1 78119770#2 78113880#0 78113880#1 78109287#3 78109287#4 78109287#5 78109287#6 78109287#7 78109287#8 78109287#9 78109287#10 78109287#11 454296737#1 1044584957#0"/>
    </vehicle>
    <vehicle id="104" depart="10.40">
        <route edges="380627284#1 380627284#2 78117258#1 190682782#8 190682782#9 190682782#10 995426422#2 78117718#0 78117718#1 1044580301#0 1044580301#1 1219108106 78115060#0 78115060#1 380627284#0 995426422#1"/>
    </vehicle>
    <vehicle id="105" depart="10.50">
        <route edges="190682782#7 78117258#2 -179061671 -179061659 -179061645 179061707#0 179061707#1 -179739481 -179061697 -179061667 -179061683#1 -179061683#0 -179061651 78113880#0 78113880#1 78109287#3"/>
    </vehicle>
    <vehicle id="106" depart="10.60">
        <route edges="450903752#0 450903752#1 78112357#2 454415692#0 454415692#1 454296737#2 454296737#3 450903749#0"/>
    </vehicle>
    <vehicle id="107" depart="10.70">
        <route edges="995426421#1 78117258#0 78117258#1 190682782#8 190682782#9 190682782#10 995426422#2 78117718#0 78117718#1 1044580301#0 1044580301#1 78107796 E13"/>
    </vehicle>
    <vehicle id="108" depart="10.80">
        <route edges="656972743#4 656972743#5 450903749#2 450903749#3 450903749#4 179062645#0 175650574#1 78103394#0 78103394#1 376520422#0 376520422#1 78099929 744364738 78106219#0 78106219#1"/>
    </vehicle>
    <vehicle id="110" depart="11.00">
        <route edges="995426421#5 995426421#6 995426421#7 78119770#0 78119770#1 78119770#2 78113880#0 78113880#1 78113880#2 78113880#3 775246444#0 775246444#1"/>
    </vehicle>
    <vehicle id="111" depart="11.10">
        <route edges="549192578#1 455830896#0 78111307#0 78111307#1 78111307#2 78111307#3 78111307#4 78109287#9 78109287#10 78102715#6 78102715#7 78106531#0"/>
    </vehicle>
    <vehicle id="112" depart="11.20">
        <route edges="1044580301#1 1219108106 78115060#0 78115060#1 380627284#0 380627284#1 380627284#2 380627284#3 380627284#4 380627284#5 78098364#1"/>
    </vehicle>
    <vehicle id="113" depart="11.30">
        <route edges="454415692#1 1044584957#0 1044584957#1 78102715#5 78109287#11 450903752#0 450903752#1 78112357#2 78112357#3"/>
    </vehicle>
    <vehicle id="114" depart="11.40">
        <route edges="179061710#0 179061710#1 179061645 179061659 78112917#0 78112917#1 78112917#2 995426421#3"/>
    </vehicle>
    <vehicle id="115" depart="11.50">
        <route edges="1219108106 78115060#0 78115060#1 380627284#0 380627284#1 380627284#2 380627284#3 380627284#4 380627284#5 380627284#6 380627284#7 179061738#2"/>
    </vehicle>
    <vehicle id="116" depart="11.60">
        <route edges="78099777#0 78099777#1 78099777#2 78099777#3 456440946#6 450903755#0 450903755#1 450903755#2 78111307#3 78111307#4 78111307#5 78111307#6 -179061659 78104772"/>
    </vehicle>
    <vehicle id="117" depart="11.70">
        <route edges="179062649 78099447#1 175650574#0 175650574#1 78103394#0 78103394#1 376520422#0 376520422#1 449593808 217050242#12 217050242#13 217050242#14 78106247#5 179061657#0"/>
    </vehicle>
    <vehicle id="118" depart="11.80">
        <route edges="78114859#2 78114859#3 78114859#4 78114859#5 78114859#6 179061738#0 190682782#3 190682782#4 190682782#5 190682782#6 190682782#7 190682782#8 190682782#9 190682782#10"/>
    </vehicle>
    <vehicle id="119" depart="11.90">
        <route edges="78099777#0 78099777#1 78099777#2 179062645#2 179062645#3 179062645#4 179062645#5 179062645#6 179062645#7 78102540#1 78102540#2"/>
    </vehicle>
    <vehicle id="120" depart="12.00">
        <route edges="449593808 217050242#12 78114859#6 179061683#0 179061683#1 179061667 179061697 179739481 179061710#0 179061710#1 179061645 179061659 78112917#0 78112917#1 380627284#4 380627284#5 78098364#1"/>
    </vehicle>
    <vehicle id="121" depart="12.10">
        <route edges="456440946#2 456440946#3 456440946#4 456440946#5 456440946#6 450903755#0 175649854#1 179062643 78108615#0 450903750#2 450903750#3 450903750#4 450903750#5 179062646 78107580#1 78117607#0"/>
    </vehicle>
    <vehicle id="122" depart="12.20">
        <route edges="179062645#1 78099777#3 78099777#4 78103394#1 376520422#0 376520422#1 78099929 744364738 78106219#0"/>
    </vehicle>
    <vehicle id="123" depart="12.30">
        <route edges="190682782#0 190682782#1 190682782#2 190682782#3 190682782#4 190682782#5 190682782#6 78112917#1 380627284#4 380627284#5"/>
    </vehicle>
    <vehicle id="124" depart="12.40">
        <route edges="78103558#5 203959698#4 203959698#5 78114859#0 78114859#1 78114859#2 78114859#3 78114859#4 78109287#4 78109287#5 376520422#1 78099929 217050242#10"/>
    </vehicle>
    <vehicle id="125" depart="12.50">
        <route edges="217050242#15 179061638#1 78109287#1 78109287#2 78109287#3 78109287#4 78109287#5 78109287#6 78109287#7 78109287#8 78109287#9 78109287#10 78102715#6 78102715#7 78106531#0 78106531#1 78106531#2"/>
    </vehicle>
    <vehicle id="126" depart="12.60">
        <route edges="1044584957#4 78116626#3 450903755#2 78111307#3 78111307#4 78109287#9 78109287#10 78109287#11 450903752#0 450903752#1"/>
    </vehicle>
    <vehicle id="128" depart="12.80">
        <route edges="1044584957#5 226079999#0 226079999#1 78103558#1 78103558#2 179062645#3 179062645#4"/>
    </vehicle>
    <vehicle id="129" depart="12.90">
        <route edges="190682782#7 190682782#8 190682782#9 190682782#10 995426422#2 995426422#3 179061730 454296737#0 454296737#1 454296737#2 454296737#3 454296737#4 179062646 78107580#1 78117607#0"/>
    </vehicle>
    <vehicle id="130" depart="13.00">
        <route edges="78113880#3"/>
    </vehicle>
    <vehicle id="131" depart="13.10">
        <route edges="376520422#0 376520422#1 78099929 744364738 179061667 179061697 179739481 179061710#0"/>
    </vehicle>
    <vehicle id="132" depart="13.20">
        <route edges="78111307#3 1044584957#4 1044584957#5 226079999#0 376520422#0 376520422#1 449593808 217050242#12 78114859#6 179061738#0 179061738#1 380627284#8 380627284#9 380627284#10 78105349#1"/>
    </vehicle>
    <vehicle id="133" depart="13.30">
        <route edges="78099929 744364738 179061667 179061697 179739481 179061710#0 179061710#1 179061645 179061659 179061671 179061665 179061677 1044580300 455836462 1044580301#0 1044580301#1 1219108106 78115060#0 78115060#1 380627284#0 995426422#1"/>
    </vehicle>
    <vehicle id="134" depart="13.40">
        <route edges="78103394#1 376520422#0 376520422#1 449593808 217050242#12 78114859#6 -179061651"/>
    </vehicle>
    <vehicle id="135" depart="13.50">
        <route edges="78110528 549192578#0 549192578#1 455830896#0 455830896#1 442200086#0 78113652 78099447#0 78099447#1 175650574#0 175650574#1 78103394#0 78103394#1 376520422#0 376520422#1 78099929 217050242#10"/>
    </vehicle>
    <vehicle id="136" depart="13.60">
        <route edges="78103558#2 78103558#3 78105255#6 78099777#2 78099777#3 456440946#6 450903755#0 450903755#1 450903755#2 450903755#3 450903755#4 78102715#4 78102715#5 78102715#6 78102715#7 78106531#0 190682782#9 190682782#10 995426422#2 78117718#0"/>
    </vehicle>
    <vehicle id="137" depart="13.70">
        <route edges="179061667 179061697 179739481 179061710#0 179061710#1 179061645 179061659 78112917#0 78112917#1 380627284#4 380627284#5 380627284#6 380627284#7 380627284#8 78119770#1 78119770#2 179061651"/>
    </vehicle>
    <vehicle id="138" depart="13.80">
        <route edges="179061638#4 179062645#7 78102540#1 78102540#2 78102540#3 78109287#0 78109287#1 78109287#2 78109287#3 78109287#4 78109287#5 78109287#6 78109287#7 78109287#8 78109287#9 656972743#3"/>
    </vehicle>
    <vehicle id="139" depart="13.90">
        <route edges="203959698#0 203959698#1 78099777#0 78099777#1 78099777#2 78099777#3"/>
    </vehicle>
    <vehicle id="140" depart="14.00">
        <route edges="78106219#0 190682782#4 78098364#2 179061741#0 179061741#1 179061741#2 175649854#0 450903755#1 78116626#4 450903749#4 179062645#0 179062645#1"/>
    </vehicle>
    <vehicle id="141" depart="14.10">
        <route edges="78102715#3 78102715#4 1044584957#2 1044584957#3 78111307#4 78111307#5 78111307#6 78112917#0 190682782#7"/>
    </vehicle>
    <vehicle id="142" depart="14.20">