<?xml version="1.0" encoding="UTF-8"?>

<!-- generated on 2023-12-23 19:14:59.790857 by randomTrips.py v1_18_0+0000-03ecfdea036
<configuration>
    <net-file value="InstanciaGrande.net.xml"/>
    <route-file value="routesGrande.rou.xml"/>
    <fringe-factor value="20"/>
    <random value="True"/>
    <end value="100.0"/>
    <period value="0.2"/>
</configuration>
-->

<!-- generated on 2023-12-23 19:14:59 by Eclipse SUMO duarouter Version 1.18.0
<configuration xmlns:xsi="http://www.w3.org/2001/XMLSchema-instance" xsi:noNamespaceSchemaLocation="http://sumo.dlr.de/xsd/duarouterConfiguration.xsd">

    <input>
        <net-file value="InstanciaGrande.net.xml"/>
        <route-files value="trips.trips.xml"/>
    </input>

    <output>
        <output-file value="routesGrande.rou.xml"/>
        <alternatives-output value="NUL"/>
    </output>

    <time>
        <begin value="0"/>
        <end value="100.0"/>
    </time>

    <report>
        <no-warnings value="true"/>
        <ignore-errors value="true"/>
        <no-step-log value="true"/>
    </report>

</configuration>
-->

<routes xmlns:xsi="http://www.w3.org/2001/XMLSchema-instance" xsi:noNamespaceSchemaLocation="http://sumo.dlr.de/xsd/routes_file.xsd">
    <vehicle id="0" depart="0.00">
        <route edges="1044584957#5 226079999#0 226079999#1 226079999#2 226079999#3 226079999#4 226079999#5 226079999#6 226079999#7"/>
    </vehicle>
    <vehicle id="1" depart="0.20">
        <route edges="656972743#3 1044584957#3 1044584957#4 1044584957#5 226079999#0 376520422#0 376520422#1 449593808 217050242#12 217050242#13 217050242#14 217050242#15 217050242#16 78102540#5"/>
    </vehicle>
    <vehicle id="2" depart="0.40">
        <route edges="78109562#3 217050242#2 217050242#3 217050242#4 217050242#5 217050242#6 217050242#7 217050242#8 179061741#1 179061741#2 226079999#0 376520422#0 78109287#6"/>
    </vehicle>
    <vehicle id="3" depart="0.60">
        <route edges="450903755#4 450903755#5 450903755#6 179062648#0 78109562#1 454415692#1"/>
    </vehicle>
    <vehicle id="4" depart="0.80">
        <route edges="946966779 78114859#0 78114859#1 78114859#2 456440946#4 456440946#5 78099777#4 78103394#1 226079999#1"/>
    </vehicle>
    <vehicle id="5" depart="1.00">
        <route edges="217050242#3 217050242#4 217050242#5 656972743#1 656972743#2 656972743#3 656972743#4 656972743#5 656972743#6 656972743#7 78111867"/>
    </vehicle>
    <vehicle id="6" depart="1.20">
        <route edges="78106851 995426422#0 995426422#1 995426422#2 995426422#3 179061730 454296737#0 450903752#0 450903752#1 78112357#2 454415692#0"/>
    </vehicle>
    <vehicle id="7" depart="1.40">
        <route edges="203959698#3 203959698#4 203959698#5 78114859#0 78114859#1 179062645#4 179062645#5 179062645#6 179062645#7 78102540#1 78102540#2 78102540#3 78102540#4 78102540#5"/>
    </vehicle>
    <vehicle id="8" depart="1.60">
        <route edges="78102715#0 78102715#1 78102715#2 78102715#3 78102715#4 78102715#5 78102715#6 78102715#7 78106531#0 190682782#9 190682782#10 215972664"/>
    </vehicle>
    <vehicle id="9" depart="1.80">
        <route edges="454296737#3 450903749#0 450903749#1 450903749#2 450903749#3 450903749#4 179062645#0 175650574#1 78103394#0 78103394#1 376520422#0 376520422#1 449593808 217050242#12 217050242#13 217050242#14 217050242#15 217050242#16 217050242#17"/>
    </vehicle>
    <vehicle id="10" depart="2.00">
        <route edges="-319683134 -319683135 -1044580300 179061730 217050242#3 217050242#4 217050242#5 217050242#6 217050242#7 217050242#8 179061741#1 179061741#2 226079999#0 226079999#1 226079999#2 226079999#3 226079999#4 226079999#5 226079999#6 78102540#3 78109287#0"/>
    </vehicle>
    <vehicle id="11" depart="2.20">
        <route edges="179061683#0 179061683#1 179061667 179061697"/>
    </vehicle>
    <vehicle id="12" depart="2.40">
        <route edges="78115060#0 78115060#1 380627284#0 995426422#1 995426422#2 995426422#3 -179061677 -179061665 -179061671 -179061659 -179061645 179061707#0 179061707#1 -179739481 -179061697"/>
    </vehicle>
    <vehicle id="13" depart="2.60">
        <route edges="217050242#7 78116626#1 78109287#8 78111307#5 78111307#6 -179061659 78104772"/>
    </vehicle>
    <vehicle id="14" depart="2.80">
        <route edges="-319683134 -319683135 -1044580300 179061730 217050242#3 217050242#4 217050242#5 217050242#6 217050242#7 217050242#8 217050242#9 217050242#10"/>
    </vehicle>
    <vehicle id="15" depart="3.00">
        <route edges="450903749#4 179062645#0 175650574#1 78103394#0 78103394#1 376520422#0 376520422#1 449593808 217050242#12 217050242#13 217050242#14 217050242#15 217050242#16 78102540#5"/>
    </vehicle>
    <vehicle id="16" depart="3.20">
        <route edges="78106531#0 190682782#9 190682782#10 995426422#2 995426422#3 179061730 454296737#0 454296737#1 454296737#2 454296737#3 454296737#4 454296737#5 78110528 549192578#0 549192578#1 455830896#0 455830896#1 442200086#0 442200086#1 203959698#0 203959698#1 203959698#2 203959698#3 203959698#4 203959698#5 1121698181"/>
    </vehicle>
    <vehicle id="17" depart="3.40">
        <route edges="78107580#0 78107580#1 78111091#0 78111091#1 450903749#0 78102715#3 78102715#4 78102715#5 78102715#6 78102715#7 78106531#0"/>
    </vehicle>
    <vehicle id="18" depart="3.60">
        <route edges="217050242#14 217050242#15 179061638#1 78109287#1 78109287#2 78109287#3 78109287#4 78109287#5 78109287#6 179061741#2 175649854#0 175649854#1 179062643 78108615#0 450903750#2 450903750#3 656972743#7 78111867"/>
    </vehicle>
    <vehicle id="19" depart="3.80">
        <route edges="217050242#0 217050242#1 217050242#2 217050242#3 78102715#7 179061677 1044580300 455836462 1044580301#0 1044580301#1 1219108106 78115060#0 78115060#1 78115060#2"/>
    </vehicle>
    <vehicle id="20" depart="4.00">
        <route edges="78113547 78109287#0 179061638#2 179061638#3 179061638#4 179061638#5 78105255#1"/>
    </vehicle>
    <vehicle id="21" depart="4.20">
        <route edges="217050242#0 217050242#1 217050242#2 217050242#3 217050242#4 217050242#5 217050242#6 217050242#7 217050242#8 179061741#1 179061741#2 226079999#0 226079999#1 226079999#2 78114859#4 78114859#5"/>
    </vehicle>
    <vehicle id="22" depart="4.40">
        <route edges="203959698#1 78099777#0 78099777#1 78099777#2 78099777#3 78099777#4 78103394#1 376520422#0 376520422#1 449593808 217050242#12 78114859#6 -179061651 -179061657#1"/>
    </vehicle>
    <vehicle id="23" depart="4.60">
        <route edges="-179061671 -179061659 78104772 78116626#0 78116626#1 78116626#2 78116626#3 78116626#4 449593807 78108615#0 78108615#1"/>
    </vehicle>
    <vehicle id="26" depart="5.20">
        <route edges="1044580301#0 1044580301#1 78107796 E13 E14 82106013"/>
    </vehicle>
    <vehicle id="27" depart="5.40">
        <route edges="-179061677 -179061665 -179061671 -179061659 78104772 78116626#0 78116626#1 78116626#2 78116626#3 78116626#4 449593807 78108615#0 78108615#1"/>
    </vehicle>
    <vehicle id="28" depart="5.60">
        <route edges="78112357#0 217050242#1 217050242#2 217050242#3 217050242#4 217050242#5 217050242#6 217050242#7 217050242#8 217050242#9 217050242#10 217050242#11 217050242#12 217050242#13 217050242#14 217050242#15 217050242#16 78102540#5"/>
    </vehicle>
    <vehicle id="29" depart="5.80">
        <route edges="179061707#0 179061707#1 -179739481 -179061697 179061741#0 179061741#1 78109287#7 78109287#8 78109287#9 78109287#10 78102715#6 78102715#7 179061677 1044580300 319683135 319683134"/>
    </vehicle>
    <vehicle id="30" depart="6.00">
        <route edges="78109287#1 78109287#2 78109287#3 78109287#4 78109287#5 78109287#6 78109287#7 78109287#8 78109287#9 78109287#10 78102715#6 78102715#7 179061677 1044580300 455836462 1044580301#0 1044580301#1 1219108106 78115060#0 78115060#1 78115060#2"/>
    </vehicle>
    <vehicle id="31" depart="6.20">
        <route edges="946966779 78114859#0 78114859#1 78114859#2 78114859#3 78114859#4 78109287#4 78109287#5"/>
    </vehicle>
    <vehicle id="32" depart="6.40">
        <route edges="549192578#0 78102715#1 450903750#5 179062646 78107580#1 78111091#0"/>
    </vehicle>
    <vehicle id="33" depart="6.60">
        <route edges="1044578438 78105255#0 78105255#1 78105255#2 78105255#3 78105255#4 78105255#5 78105255#6 78105255#7 450903750#0 450903750#1 450903750#2 450903750#3 450903750#4 450903750#5 179062646 78107580#1 78117607#0 78117607#1"/>
    </vehicle>
    <vehicle id="34" depart="6.80">
        <route edges="946966779 78114859#0 78105255#5 78105255#6 78105255#7 450903750#0 450903750#1 450903750#2 450903750#3 450903750#4 450903750#5 179062646 78107580#1 78117607#0 78117607#1"/>
    </vehicle>
    <vehicle id="35" depart="7.00">
        <route edges="78117718#1 1044580301#0 1044580301#1 1219108106 78115060#0 78115060#1 380627284#0 380627284#1 380627284#2 380627284#3 380627284#4 380627284#5 380627284#6"/>
    </vehicle>
    <vehicle id="36" depart="7.20">
        <route edges="217050242#14 217050242#15 179061638#1 78109287#1 78109287#2 78109287#3 78109287#4 78109287#5 78109287#6 179061741#2 175649854#0 175649854#1 179062643 78108615#0 450903750#2 450903750#3 656972743#7 78111867"/>
    </vehicle>
    <vehicle id="37" depart="7.40">
        <route edges="-319683134 -319683135 -1044580300 -179061677 -179061665 -179061671 -179061659 -179061645 179061707#0 179061707#1 -179739481 -179061697 -179061667 -179061683#1 -179061683#0 -179061651 78113880#0 217050242#14 217050242#15 217050242#16 217050242#17"/>
    </vehicle>
    <vehicle id="38" depart="7.60">
        <route edges="78112917#1 380627284#4 380627284#5 78098364#1 78098364#2 179061741#0 179061741#1 78109287#7 78116626#2"/>
    </vehicle>
    <vehicle id="39" depart="7.80">
        <route edges="450903750#4 78102715#2 78102715#3 78102715#4 78102715#5 78102715#6 78102715#7 179061677 1044580300 455836462 1044580301#0 1044580301#1 1219108106"/>
    </vehicle>
    <vehicle id="40" depart="8.00">
        <route edges="78106851 995426422#0 995426422#1 995426422#2 995426422#3 179061730 454296737#0 454296737#1 454296737#2 454296737#3 450903749#0 450903749#1 450903749#2 450903749#3 449593807 78108615#0 78108615#1"/>
    </vehicle>
    <vehicle id="41" depart="8.20">
        <route edges="1044578438 78102540#0 78102540#1 78102540#2 78102540#3 78109287#0 78109287#1 78109287#2 78109287#3 78109287#4 78109287#5 78109287#6 78109287#7 78109287#8 78109287#9 78109287#10 78102715#6 78102715#7 78106531#0 190682782#9 190682782#10 215972664"/>
    </vehicle>
    <vehicle id="42" depart="8.40">
        <route edges="1044580301#0 1044580301#1 1219108106 78115060#0 78115060#1 380627284#0 380627284#1 380627284#2 380627284#3 380627284#4 380627284#5 380627284#6 380627284#7 380627284#8 78119770#1 78119770#2 78113880#0 78113880#1 78113880#2 78113880#3 775246444#0 775246444#1 78105255#4 78105255#5"/>
    </vehicle>
    <vehicle id="43" depart="8.60">
        <route edges="380627284#3 380627284#4 205581466#1 190682782#6 190682782#7 190682782#8 190682782#9 190682782#10 995426422#2 995426422#3 179061730 454296737#0 454296737#1 454296737#2 454296737#3 454296737#4 454296737#5 997835148"/>
    </vehicle>
    <vehicle id="44" depart="8.80">
        <route edges="78111091#1 450903749#0 450903749#1 450903749#2"/>
    </vehicle>
    <vehicle id="45" depart="9.00">
        <route edges="217050242#0 78112357#1 78112357#2 454415692#0 454415692#1 454296737#2 454296737#3 450903749#0 450903749#1 450903749#2 450903749#3 450903749#4 179062645#0 179062645#1"/>
    </vehicle>
    <vehicle id="46" depart="9.20">
        <route edges="179061741#2 226079999#0 376520422#0 78109287#6 78109287#7 78109287#8 78109287#9 78109287#10 78102715#6 78102715#7 179061677 1044580300 455836462 1044580301#0 1044580301#1 1219108106 78115060#0 78115060#1 78115060#2"/>
    </vehicle>
    <vehicle id="47" depart="9.40">
        <route edges="78113547 78109287#0 179061638#2 179061638#3 179061638#4 179061638#5 78105255#1 78106247#0"/>
    </vehicle>
    <vehicle id="48" depart="9.60">
        <route edges="179062645#6 179061638#5 78105255#1 78105255#2 78105255#3 78105255#4 78105255#5 78103558#4 78103558#5 203959698#4 1121707116"/>
    </vehicle>
    <vehicle id="49" depart="9.80">
        <route edges="78099777#3 456440946#6 450903755#0 450903755#1 450903755#2 450903755#3 450903755#4 78102715#4 78102715#5 78102715#6 78102715#7 179061677 1044580300 455836462 1044580301#0 1044580301#1 1219108106 78115060#0 78115060#1 78115060#2"/>
    </vehicle>
    <vehicle id="50" depart="10.00">
        <route edges="78102715#1 78102715#2 78102715#3 78102715#4 78102715#5 78102715#6 78102715#7 179061677 1044580300 455836462 1044580301#0 1044580301#1 1219108106 78115060#0 78115060#1 78115060#2"/>
    </vehicle>
    <vehicle id="51" depart="10.20">
        <route edges="78103394#1 226079999#1 78103558#1 456440946#5 456440946#6 450903755#0 175649854#1 179062643 78108615#0 78108615#1"/>
    </vehicle>
    <vehicle id="52" depart="10.40">
        <route edges="217050242#3 217050242#4 217050242#5 656972743#1 656972743#2 656972743#3 656972743#4 656972743#5 656972743#6 656972743#7 78111867"/>
    </vehicle>
    <vehicle id="53" depart="10.60">
        <route edges="456440946#4 456440946#5 456440946#6 450903755#0 450903755#1 450903755#2 450903755#3 450903755#4 78102715#4 78102715#5 78102715#6 78102715#7 78106531#0 190682782#9 190682782#10 215972664"/>
    </vehicle>
    <vehicle id="54" depart="10.80">
        <route edges="450903755#4 78102715#4 78102715#5 78102715#6 78102715#7 179061677 1044580300 455836462 1044580301#0 1044580301#1 1219108106 78115060#0 78115060#1 380627284#0 995426422#1"/>
    </vehicle>
    <vehicle id="55" depart="11.00">
        <route edges="226079999#6 78102540#3 78109287#0 78109287#1 78109287#2 78109287#3 78109287#4 78109287#5 78109287#6 179061741#2 175649854#0 175649854#1 179062643 78108615#0"/>
    </vehicle>
    <vehicle id="56" depart="11.20">
        <route edges="775246444#1 78105255#4 78114859#1 179062645#4 179062645#5 179062645#6 179062645#7 78102540#1 78102540#2 226079999#7"/>
    </vehicle>
    <vehicle id="57" depart="11.40">
        <route edges="78246223 78115060#1 380627284#0 995426422#1 995426422#2 995426422#3 -179061677 -179061665 656972743#0 656972743#1 656972743#2 78109287#10"/>
    </vehicle>
    <vehicle id="58" depart="11.60">
        <route edges="78112357#0 78112357#1 78112357#2 454415692#0 454415692#1 454296737#2 454296737#3 450903749#0 450903749#1 450903749#2 450903749#3 449593807 78108615#0 78108615#1"/>
    </vehicle>
    <vehicle id="59" depart="11.80">
        <route edges="78102715#7 -179061665 -179061671 -179061659 78104772 78116626#0 78116626#1 78116626#2 78116626#3 78116626#4 449593807 78108615#0 78108615#1"/>
    </vehicle>
    <vehicle id="60" depart="12.00">
        <route edges="450903750#3 656972743#7 455830896#0 455830896#1 442200086#0 78113652 78099447#0 78099447#1 175650574#0 175650574#1 78103394#0 78103394#1 376520422#0 376520422#1 449593808 217050242#12 217050242#13 217050242#14 217050242#15 217050242#16 78102540#5"/>
    </vehicle>
    <vehicle id="61" depart="12.20">
        <route edges="-319683134 -319683135 -1044580300 179061730 454296737#0 454296737#1 454296737#2 454296737#3 450903749#0 450903749#1 450903749#2 450903749#3 449593807 78108615#0 78108615#1"/>
    </vehicle>
    <vehicle id="62" depart="12.40">
        <route edges="1044578438 78105255#0 78105255#1 78105255#2 78105255#3 78105255#4 78105255#5 78105255#6 78105255#7 450903750#0 450903750#1 450903750#2 450903750#3 450903750#4 450903750#5 179062646 78107580#1 78111091#0"/>
    </vehicle>
    <vehicle id="63" depart="12.60">
        <route edges="656972743#2 78109287#10 78102715#6 78102715#7 78106531#0 78106531#1 78106531#2 380627284#2 380627284#3 380627284#4 205581466#1 190682782#6"/>
    </vehicle>
    <vehicle id="64" depart="12.80">
        <route edges="946966779 78114859#0 78114859#1 78114859#2 78114859#3 78114859#4 78114859#5 78114859#6 179061738#0 190682782#3 190682782#4 190682782#5 190682782#6 190682782#7 190682782#8 190682782#9 190682782#10 215972664"/>
    </vehicle>
    <vehicle id="65" depart="13.00">
        <route edges="78103558#2 78103558#3 78105255#6 78105255#7 450903750#0 450903750#1 78108615#1"/>
    </vehicle>
    <vehicle id="66" depart="13.20">
        <route edges="78111307#5 78111307#6 179061671 179061665 179061677 1044580300 319683135 319683134"/>
    </vehicle>
    <vehicle id="67" depart="13.40">
        <route edges="454296737#1 1044584957#0 1044584957#1 1044584957#2 1044584957#3"/>
    </vehicle>
    <vehicle id="68" depart="13.60">
        <route edges="995426422#0 995426422#1 995426422#2 995426422#3 179061730 454296737#0 454296737#1 454296737#2 454296737#3 454296737#4 454296737#5 78110528 549192578#0 549192578#1 455830896#0 455830896#1 442200086#0 442200086#1 203959698#0 203959698#1 78099777#0 78099777#1"/>
    </vehicle>
    <vehicle id="69" depart="13.80">
        <route edges="78113652 78099447#0 78099447#1 175650574#0 179062645#1 78099777#3 456440946#6 450903755#0 175649854#1 179062643 78108615#0 78108615#1"/>
    </vehicle>
    <vehicle id="70" depart="14.00">
        <route edges="78102715#0 549192578#1 455830896#0 455830896#1 442200086#0 78113652 78099447#0 78099447#1 175650574#0 179062645#1 179062645#2 179062645#3 179062645#4 179062645#5 179062645#6 179061638#5 78105255#1 78105255#2"/>
    </vehicle>
    <vehicle id="72" depart="14.40">
        <route edges="-319683134 -319683135 -1044580300 179061730 454296737#0 454296737#1 1044584957#0 1044584957#1 1044584957#2"/>
    </vehicle>
    <vehicle id="73" depart="14.60">
        <route edges="78102715#0 78102715#1 78102715#2 450903749#1 450903749#2 450903749#3 449593807 78108615#0 78108615#1"/>
    </vehicle>
    <vehicle id="74" depart="14.80">
        <route edges="78106851 995426422#0 995426422#1 995426422#2 78117718#0 455836460 -1044580300"/>
    </vehicle>
    <vehicle id="75" depart="15.00">
        <route edges="995426421#9 78105349#0 78105349#1 78105349#2 179061638#0 179061638#1 179061638#2 226079999#6 226079999#7"/>
    </vehicle>
    <vehicle id="76" depart="15.20">
        <route edges="-319683134 -319683135 -1044580300 -179061677 -179061665 -179061671 -179061659 -179061645 179061707#0 179061707#1 -179739481 -179061697 -179061667 -179061683#1 -179061683#0 -179061651 78113880#0 217050242#14 217050242#15 217050242#16 78102540#5"/>
    </vehicle>
    <vehicle id="77" depart="15.40">
        <route edges="78109287#10 78109287#11 454296737#1 1044584957#0 1044584957#1"/>
    </vehicle>
    <vehicle id="78" depart="15.60">
        <route edges="78102715#6 78102715#7 179061677 1044580300 455836462 1044580301#0 1044580301#1 78107796 E13 E14 82106013"/>
    </vehicle>
    <vehicle id="79" depart="15.80">
        <route edges="1044578438 78105255#0 78105255#1 78105255#2 78105255#3 78105255#4 78105255#5 78103558#4 78103558#5 203959698#4 1121707116"/>
    </vehicle>
    <vehicle id="80" depart="16.00">
        <route edges="78113547 78109287#0 78109287#1 78109287#2 78113880#2 78113880#3 456440946#3 456440946#4 456440946#5"/>
    </vehicle>
    <vehicle id="81" depart="16.20">
        <route edges="78102540#0 78102540#1 78102540#2 78102540#3 78109287#0 78109287#1 78106247#4 78106247#5 179061657#0"/>
    </vehicle>
    <vehicle id="82" depart="16.40">
        <route edges="217050242#7 78116626#1 78116626#2 78116626#3 450903755#2 450903755#3 656972743#5 656972743#6 656972743#7 78111867"/>
    </vehicle>
    <vehicle id="83" depart="16.60">
        <route edges="78117258#0 78117258#1 78117258#2 656972743#0 656972743#1 656972743#2 656972743#3 656972743#4 656972743#5 656972743#6 656972743#7 455830896#0 455830896#1 442200086#0 442200086#1 203959698#0 203959698#1 203959698#2"/>
    </vehicle>
    <vehicle id="84" depart="16.80">
        <route edges="78105255#2 78105255#3 78105255#4 78114859#1 78114859#2 78114859#3 78114859#4 78114859#5 78114859#6 179061683#0 179061683#1 179061667 179061697 179739481 179061710#0 179061710#1 179061645 179061659 179061671 179061665 179061677 1044580300 455836462 1044580301#0 1044580301#1 78107796 E13 E14 82106013"/>
    </vehicle>
    <vehicle id="85" depart="17.00">
        <route edges="1044578438 78102540#0 78102540#1 78102540#2 78102540#3 78109287#0 78109287#1 78109287#2 78109287#3 78109287#4 78109287#5 78109287#6"/>
    </vehicle>
    <vehicle id="86" depart="17.20">
        <route edges="450903750#3 656972743#7 455830896#0 455830896#1 442200086#0 78113652 78099447#0 78099447#1 175650574#0 175650574#1 78103394#0 78103394#1 226079999#1 226079999#2 226079999#3 226079999#4 226079999#5 226079999#6 78102540#3 78102540#4"/>
    </vehicle>
    <vehicle id="87" depart="17.40">
        <route edges="78105349#0 78105349#1 78105349#2 179061638#0 179061638#1 78109287#1 78109287#2 78113880#2 78113880#3 775246444#0 775246444#1 78105255#4 78105255#5 78105255#6 78099777#2"/>
    </vehicle>
    <vehicle id="88" depart="17.60">
        <route edges="179062645#6 179061638#5 78105255#1 78105255#2 78105255#3 78105255#4 78105255#5 78105255#6 78105255#7 450903750#0 450903750#1 450903750#2 450903750#3 450903750#4 450903750#5 179062646 78107580#1 78117607#0 78117607#1"/>
    </vehicle>
    <vehicle id="89" depart="17.80">
        <route edges="78112357#0 217050242#1 217050242#2 217050242#3 217050242#4 217050242#5 217050242#6 217050242#7 217050242#8 217050242#9"/>
    </vehicle>
    <vehicle id="90" depart="18.00">
        <route edges="450903755#1 78116626#4 450903749#4 179062645#0 175650574#1 78103394#0 78103394#1 376520422#0 376520422#1 449593808 217050242#12 78114859#6 179061738#0 179061738#1 179061738#2 995426421#7 995426421#8 995426421#9 78105349#0"/>
    </vehicle>
    <vehicle id="91" depart="18.20">
        <route edges="78119770#1 78119770#2 78113880#0 78113880#1 78113880#2 226079999#4 226079999#5"/>
    </vehicle>
    <vehicle id="92" depart="18.40">
        <route edges="995426421#3 995426421#4 995426421#5 995426421#6 995426421#7 995426421#8 995426421#9 78105349#0 78105349#1 78105349#2 179061638#0"/>
    </vehicle>
    <vehicle id="93" depart="18.60">
        <route edges="217050242#13 78113880#1 78109287#3 78109287#4 78109287#5 78109287#6 78109287#7 78109287#8 78109287#9 78109287#10 78102715#6 78102715#7 78106531#0 78106531#1 78106531#2 380627284#2"/>
    </vehicle>
    <vehicle id="94" depart="18.80">
        <route edges="946966779 78114859#0 78105255#5 78105255#6 78105255#7 450903750#0 450903750#1 450903750#2 450903750#3 450903750#4 450903750#5 179062646 78107580#1 78117607#0 78117607#1"/>
    </vehicle>
    <vehicle id="95" depart="19.00">
        <route edges="1044578438 78102540#0 78102540#1 456440946#0 456440946#1 456440946#2 456440946#3 456440946#4 456440946#5 456440946#6 450903755#0 175649854#1 179062643"/>
    </vehicle>
    <vehicle id="96" depart="19.20">
        <route edges="78112357#0 217050242#1 217050242#2 217050242#3 217050242#4 217050242#5 217050242#6 217050242#7 217050242#8 179061741#1 179061741#2 226079999#0 226079999#1 226079999#2 226079999#3 226079999#4 226079999#5 226079999#6 226079999#7"/>
    </vehicle>
    <vehicle id="97" depart="19.40">
        <route edges="450903755#2 78111307#3 1044584957#4 1044584957#5 226079999#0 226079999#1 226079999#2 226079999#3 226079999#4 226079999#5 226079999#6 226079999#7"/>
    </vehicle>
    <vehicle id="98" depart="19.60">
        <route edges="78117258#2 656972743#0 217050242#6 217050242#7 217050242#8 179061741#1 179061741#2 226079999#0 226079999#1 78103558#1 78103558#2 78103558#3 78103558#4"/>
    </vehicle>
    <vehicle id="99" depart="19.80">
        <route edges="1044578438 78102540#0 78102540#1 78102540#2 78102540#3 78109287#0 78109287#1 78109287#2 78109287#3 78109287#4 78109287#5 78109287#6 78109287#7 78109287#8 78109287#9 78109287#10 78102715#6 78102715#7 179061677 1044580300 455836462 1044580301#0 1044580301#1 1219108106 78115060#0 78115060#1 78115060#2"/>
    </vehicle>
    <vehicle id="100" depart="20.00">
        <route edges="78106851 995426422#0 995426422#1 995426422#2 995426422#3 179061730 454296737#0 454296737#1 454296737#2 454296737#3 454296737#4 454296737#5 997835148"/>
    </vehicle>
    <vehicle id="101" depart="20.20">
        <route edges="78113547 78109287#0 78109287#1 78109287#2 78113880#2 78113880#3 456440946#3 456440946#4 78103558#2 78103558#3 78103558#4 78103558#5 203959698#4 203959698#5 1121698181"/>
    </vehicle>
    <vehicle id="102" depart="20.40">
        <route edges="190682782#2 190682782#3 190682782#4 78098364#2 179061741#0 179061741#1 179061741#2 175649854#0 175649854#1 179062643 78108615#0 78108615#1"/>
    </vehicle>
    <vehicle id="103" depart="20.60">
        <route edges="946966779 78114859#0 78105255#5 78105255#6 78105255#7 450903750#0 450903750#1 450903750#2 450903750#3 450903750#4 450903750#5 179062646 78107580#1 78117607#0"/>
    </vehicle>
    <vehicle id="104" depart="20.80">
        <route edges="946966779 78114859#0 78105255#5 78105255#6 78105255#7 450903750#0 450903750#1 450903750#2 450903750#3 450903750#4 450903750#5 454296737#5 997835148"/>
    </vehicle>
    <vehicle id="105" depart="21.00">
        <route edges="78102715#5 78102715#6 78102715#7 -179061665 -179061671 -179061659 78104772 1103886702"/>
    </vehicle>
    <vehicle id="106" depart="21.20">
        <route edges="78112357#0 217050242#1 217050242#2 217050242#3 78102715#7 179061677 1044580300 455836462 1044580301#0 1044580301#1 78107796 E13 E14 82106013"/>
    </vehicle>
    <vehicle id="107" depart="21.40">
        <route edges="78099777#0 78099777#1 78099777#2 78099777#3 78099777#4 78103394#1 376520422#0 376520422#1 449593808 217050242#12 78114859#6 179061738#0 179061738#1 179061738#2 995426421#7 995426421#8"/>
    </vehicle>
    <vehicle id="108" depart="21.60">
        <route edges="78107580#0 78107580#1 78111091#0 78111091#1 450903749#0 450903749#1 450903749#2 450903749#3 450903749#4 179062645#0 175650574#1 78103394#0 78103394#1 376520422#0 376520422#1 449593808 217050242#12 217050242#13 217050242#14 217050242#15 217050242#16"/>
    </vehicle>
    <vehicle id="109" depart="21.80">
        <route edges="78113547 78109287#0 78109287#1 78109287#2 78109287#3 78109287#4 78109287#5 78109287#6 179061741#2 175649854#0 450903755#1 450903755#2 450903755#3 450903755#4 450903755#5 450903755#6 179062648#0 179062648#1 78112357#4 78117607#1"/>
    </vehicle>
    <vehicle id="110" depart="22.00">
        <route edges="78113547 78109287#0 78109287#1 78109287#2 78109287#3 78109287#4 78109287#5 78109287#6 179061741#2 175649854#0 450903755#1 78116626#4 449593807"/>
    </vehicle>
    <vehicle id="111" depart="22.20">
        <route edges="203959698#1 203959698#2 203959698#3 203959698#4 203959698#5 78114859#0 78114859#1 179062645#4"/>
    </vehicle>
    <vehicle id="112" depart="22.40">
        <route edges="1044584957#4 1044584957#5 226079999#0 376520422#0 376520422#1 449593808 217050242#12 217050242#13 217050242#14 217050242#15 217050242#16 78102540#5"/>
    </vehicle>
    <vehicle id="113" depart="22.60">
        <route edges="179061661 179061657#0 179061657#1 179061651 179061683#0 179061683#1 78106219#0 190682782#4 78098364#2 179061741#0 179061741#1 78109287#7 78116626#2 78116626#3"/>
    </vehicle>
    <vehicle id="114" depart="22.80">
        <route edges="179061677 1044580300 455836462 1044580301#0 1044580301#1 1219108106 78115060#0 78115060#1 380627284#0 995426422#1 995426422#2 995426422#3 179061730 454296737#0 454296737#1 454296737#2 454296737#3 450903749#0 450903749#1 450903749#2 450903749#3 449593807 78108615#0 78108615#1"/>
    </vehicle>
    <vehicle id="115" depart="23.00">
        <route edges="179061645 179061659 179061671 179061665 78106531#0 190682782#9 190682782#10 995426422#2 995426422#3 179061730 454296737#0 454296737#1 454296737#2 454296737#3 454296737#4 179062646 78107580#1 78111091#0 78111091#1"/>
    </vehicle>
    <vehicle id="116" depart="23.20">
        <route edges="946966779 78114859#0 78114859#1 78114859#2 78114859#3 78114859#4 78114859#5 78114859#6 179061683#0 179061683#1 179061667 179061697 179739481 179061710#0 179061710#1 179061645 179061659 179061671 179061665 179061677 1044580300 455836462 1044580301#0 1044580301#1 1219108106 78115060#0 78115060#1 78115060#2"/>
    </vehicle>
    <vehicle id="117" depart="23.40">
        <route edges="217050242#0 78112357#1 78112357#2 454415692#0 454415692#1 454296737#2 454296737#3 454296737#4 454296737#5"/>
    </vehicle>
    <vehicle id="119" depart="23.80">
        <route edges="78105255#6 78099777#2 78099777#3 456440946#6 450903755#0 450903755#1 450903755#2 450903755#3 450903755#4 78102715#4 78102715#5 78102715#6 78102715#7 78106531#0 190682782#9 190682782#10 215972664"/>
    </vehicle>
    <vehicle id="120" depart="24.00">
        <route edges="179062645#3 78114859#2 456440946#4 456440946#5 456440946#6 450903755#0 450903755#1 450903755#2 78111307#3 78111307#4 78111307#5 78111307#6"/>
    </vehicle>
    <vehicle id="122" depart="24.40">
        <route edges="179061716#2 380627284#10 78105349#1 78105349#2 179061638#0 179061638#1 179061638#2 226079999#6 226079999#7"/>
    </vehicle>
    <vehicle id="123" depart="24.60">
        <route edges="179061638#4 179062645#7 78102540#1 78102540#2 78102540#3 78109287#0 78109287#1 78109287#2 78109287#3 78109287#4 78109287#5 78109287#6 78109287#7 78109287#8 78111307#5 78111307#6 78112917#0 78112917#1 78112917#2 995426421#3 995426421#4"/>
    </vehicle>
    <vehicle id="124" depart="24.80">
        <route edges="380627284#8 78119770#1 78119770#2 78113880#0 78113880#1 78109287#3 78109287#4 78109287#5 78109287#6 179061741#2 175649854#0"/>
    </vehicle>