<?xml version="1.0" encoding="UTF-8"?>

<!-- generated on 2023-12-26 15:19:22.603059 by randomTrips.py v1_18_0+0000-03ecfdea036
<configuration>
    <net-file value="InstanciaMediana.net.xml"/>
    <route-file value="routesMediana.rou.xml"/>
    <random value="True"/>
    <end value="100.0"/>
    <period value="0.4"/>
</configuration>
-->

<!-- generated on 2023-12-26 15:19:22 by Eclipse SUMO duarouter Version 1.18.0
<configuration xmlns:xsi="http://www.w3.org/2001/XMLSchema-instance" xsi:noNamespaceSchemaLocation="http://sumo.dlr.de/xsd/duarouterConfiguration.xsd">

    <input>
        <net-file value="InstanciaMediana.net.xml"/>
        <route-files value="trips.trips.xml"/>
    </input>

    <output>
        <output-file value="routesMediana.rou.xml"/>
        <alternatives-output value="NUL"/>
    </output>

    <time>
        <begin value="0"/>
        <end value="100.0"/>
    </time>

    <report>
        <no-warnings value="true"/>
        <ignore-errors value="true"/>
        <no-step-log value="true"/>
    </report>

</configuration>
-->

<routes xmlns:xsi="http://www.w3.org/2001/XMLSchema-instance" xsi:noNamespaceSchemaLocation="http://sumo.dlr.de/xsd/routes_file.xsd">
    <vehicle id="0" depart="0.00">
        <route edges="-179061659 78104772 78116626#0 78116626#1 78116626#2 78116626#3 450903755#2 450903755#3 450903755#4 450903755#5 450903755#6 179062648#0 179062648#1"/>
    </vehicle>
    <vehicle id="1" depart="0.40">
        <route edges="78099777#1 78105255#7 450903750#0 450903750#1 450903750#2 450903750#3 656972743#7 455830896#0 78111307#0"/>
    </vehicle>
    <vehicle id="2" depart="0.80">
        <route edges="217050242#3 217050242#4 217050242#5 656972743#1 656972743#2 656972743#3 656972743#4 656972743#5 450903749#2 450903749#3 450903749#4 179062645#0 179062645#1 78099777#3"/>
    </vehicle>
    <vehicle id="3" depart="1.20">
        <route edges="78109562#0 78109562#1 454415692#1 1044584957#0 1044584957#1 1044584957#2 1044584957#3 1044584957#4 78116626#3 78116626#4"/>
    </vehicle>
    <vehicle id="4" depart="1.60">
        <route edges="78102715#1 78102715#2 78102715#3 78102715#4 78102715#5 78102715#6 78102715#7 78106531#0 78106531#1 78106531#2 380627284#2 380627284#3 380627284#4 380627284#5 78098364#1 78098364#2"/>
    </vehicle>
    <vehicle id="5" depart="2.00">
        <route edges="217050242#6 217050242#7 78116626#1 78109287#8 78109287#9 78109287#10 78109287#11 450903752#0 450903752#1 78112357#2 454415692#0"/>
    </vehicle>
    <vehicle id="6" depart="2.40">
        <route edges="380627284#2 78117258#1 190682782#8 190682782#9 190682782#10 995426422#2 78117718#0 78117718#1 1044580301#0 1044580301#1 78107796"/>
    </vehicle>
    <vehicle id="8" depart="3.20">
        <route edges="549192578#1 455830896#0 78111307#0 78111307#1 78111307#2 78111307#3 78111307#4 78109287#9 78109287#10 78102715#6 78102715#7 78106531#0 78106531#1 78106531#2 78106531#3"/>
    </vehicle>
    <vehicle id="9" depart="3.60">
        <route edges="179061741#0 179061741#1 78109287#7 78109287#8 78109287#9 78109287#10 78109287#11 450903752#0 78109562#3 217050242#2 217050242#3"/>
    </vehicle>
    <vehicle id="10" depart="4.00">
        <route edges="995426422#1 995426422#2 995426422#3 179061730 454296737#0 454296737#1 454296737#2 454296737#3"/>
    </vehicle>
    <vehicle id="11" depart="4.40">
        <route edges="450903749#1 656972743#6 450903750#4 78102715#2 78102715#3 78102715#4 78102715#5 78102715#6 78102715#7 179061677 1044580300 455836462 1044580301#0 1044580301#1 1219108106 78115060#0 78115060#1 380627284#0 380627284#1"/>
    </vehicle>
    <vehicle id="13" depart="5.20">
        <route edges="78111307#0 450903750#3 450903750#4 450903750#5 179062646 78107580#1 78111091#0 78111091#1"/>
    </vehicle>
    <vehicle id="14" depart="5.60">
        <route edges="656972743#7 455830896#0 78111307#0 78111307#1 78111307#2 450903755#3 450903755#4 450903755#5 450903755#6 179062648#0 78109562#1 78109562#2"/>
    </vehicle>
    <vehicle id="15" depart="6.00">
        <route edges="78102715#4 1044584957#2 656972743#4 656972743#5 656972743#6 656972743#7 455830896#0 455830896#1"/>
    </vehicle>
    <vehicle id="16" depart="6.40">
        <route edges="1044584957#3 1044584957#4 78116626#3 78116626#4 449593807 78108615#0 78108615#1"/>
    </vehicle>
    <vehicle id="17" depart="6.80">
        <route edges="-179061677 -179061665 656972743#0 656972743#1 656972743#2 78109287#10 78102715#6 78102715#7 179061677 1044580300 319683135 319683134"/>
    </vehicle>
    <vehicle id="18" depart="7.20">
        <route edges="-1044580300 179061730 454296737#0 454296737#1 454296737#2 454296737#3 454296737#4 454296737#5 78110528 549192578#0 78102715#1"/>
    </vehicle>
    <vehicle id="19" depart="7.60">
        <route edges="78115060#1 380627284#0 995426422#1 995426422#2 995426422#3 179061730 454296737#0 454296737#1 454296737#2 454296737#3 450903749#0 450903749#1 450903749#2 450903749#3 450903749#4 179062645#0 179062645#1 78099777#3 456440946#6 450903755#0"/>
    </vehicle>
    <vehicle id="20" depart="8.00">
        <route edges="380627284#3 380627284#4 205581466#1 190682782#6 190682782#7 190682782#8 190682782#9 190682782#10 995426422#2 78117718#0 78117718#1 1044580301#0 1044580301#1 1219108106 78115060#0 78115060#1 380627284#0 380627284#1"/>
    </vehicle>
    <vehicle id="21" depart="8.40">
        <route edges="380627284#5 78098364#1 190682782#5 190682782#6 190682782#7 78117258#2 -179061671 -179061659"/>
    </vehicle>
    <vehicle id="22" depart="8.80">
        <route edges="78117258#1 78117258#2 656972743#0 656972743#1 656972743#2 78109287#10 78109287#11 454296737#1 454296737#2 454296737#3 454296737#4"/>
    </vehicle>
    <vehicle id="23" depart="9.20">
        <route edges="78098364#1 190682782#5 190682782#6"/>
    </vehicle>
    <vehicle id="24" depart="9.60">
        <route edges="78107580#0 78107580#1 78111091#0 78111091#1 454296737#4 454296737#5 78110528 549192578#0 549192578#1 455830896#0 455830896#1 442200086#0 442200086#1 203959698#0 203959698#1 78099777#0 78099777#1 78105255#7 450903750#0"/>
    </vehicle>
    <vehicle id="25" depart="10.00">
        <route edges="190682782#5 190682782#6 190682782#7 78117258#2 656972743#0 217050242#6 217050242#7 217050242#8 179061741#1 179061741#2"/>
    </vehicle>
    <vehicle id="26" depart="10.40">
        <route edges="450903755#4 450903755#5 450903755#6 454296737#3 450903749#0 450903749#1 656972743#6 656972743#7"/>
    </vehicle>
    <vehicle id="27" depart="10.80">
        <route edges="449593807 78108615#0 450903750#2 450903750#3 450903750#4 78102715#2 78102715#3 78102715#4 78102715#5 78102715#6 217050242#4 217050242#5 656972743#1 656972743#2"/>
    </vehicle>
    <vehicle id="29" depart="11.60">
        <route edges="78098364#1 190682782#5 190682782#6 78112917#1 78112917#2 995426421#3 995426421#4 78098364#0"/>
    </vehicle>
    <vehicle id="30" depart="12.00">
        <route edges="380627284#0 995426422#1 995426422#2 995426422#3 179061730 454296737#0 454296737#1 454296737#2 454296737#3 450903749#0 450903749#1 656972743#6 656972743#7"/>
    </vehicle>
    <vehicle id="31" depart="12.40">
        <route edges="442200086#1 179062649 78099447#1 175650574#0 179062645#1 78099777#3 456440946#6 450903755#0 450903755#1 450903755#2 450903755#3 450903755#4 450903755#5 450903755#6 179062648#0 78109562#1"/>
    </vehicle>
    <vehicle id="32" depart="12.80">
        <route edges="78109562#1 454415692#1 1044584957#0 1044584957#1 78102715#5 78102715#6 78102715#7 78106531#0"/>
    </vehicle>
    <vehicle id="33" depart="13.20">
        <route edges="217050242#7 78116626#1 78109287#8 78109287#9 78109287#10 78102715#6 78102715#7 78106531#0 78106531#1 78106531#2 380627284#2 380627284#3"/>
    </vehicle>
    <vehicle id="34" depart="13.60">
        <route edges="450903749#1 450903749#2 78111307#2 78111307#3 78111307#4 78111307#5 217050242#7 78116626#1 78109287#8"/>
    </vehicle>
    <vehicle id="35" depart="14.00">
        <route edges="175649854#0 450903755#1 450903755#2 78111307#3 78111307#4 78111307#5 78111307#6 179061671"/>
    </vehicle>
    <vehicle id="36" depart="14.40">
        <route edges="380627284#1 380627284#2 78117258#1 78117258#2 656972743#0 656972743#1 656972743#2 78109287#10 78109287#11 450903752#0 450903752#1 78112357#2 78112357#3"/>
    </vehicle>
    <vehicle id="37" depart="14.80">
        <route edges="190682782#5 190682782#6 190682782#7 78117258#2 656972743#0 656972743#1 656972743#2 656972743#3 656972743#4 656972743#5 450903749#2 450903749#3 450903749#4 179062643"/>
    </vehicle>
    <vehicle id="38" depart="15.20">
        <route edges="217050242#8 179061741#1 179061741#2 175649854#0 450903755#1 78116626#4 450903749#4 179062645#0"/>
    </vehicle>
    <vehicle id="39" depart="15.60">
        <route edges="707375773 179062649 78099447#1 175650574#0 179062645#1 78099777#3 456440946#6 450903755#0 450903755#1 450903755#2 78111307#3 78111307#4"/>
    </vehicle>
    <vehicle id="40" depart="16.00">
        <route edges="78117718#0 455836460 -1044580300 -179061677 -179061665 -179061671 -179061659 -179061645 179061707#0 179061707#1 -179739481"/>
    </vehicle>
    <vehicle id="41" depart="16.40">
        <route edges="995426421#2 995426421#3 205581466#0 205581466#1 190682782#6 190682782#7 190682782#8 190682782#9 190682782#10 995426422#2 995426422#3 179061730 217050242#3 217050242#4"/>
    </vehicle>
    <vehicle id="42" depart="16.80">
        <route edges="205581466#0 205581466#1 190682782#6 190682782#7 190682782#8 190682782#9 190682782#10 995426422#2 78117718#0 78117718#1 1044580301#0 1044580301#1 78107796 E13 E14"/>
    </vehicle>
    <vehicle id="43" depart="17.20">
        <route edges="1044584957#4 78116626#3 450903755#2 450903755#3 450903755#4 78102715#4 78102715#5 78102715#6 78102715#7 78106531#0 78106531#1 78106531#2 78106531#3 995426421#1"/>
    </vehicle>
    <vehicle id="44" depart="17.60">
        <route edges="-319683135 455836462 1044580301#0 1044580301#1 1219108106 78115060#0 78115060#1"/>
    </vehicle>
    <vehicle id="45" depart="18.00">
        <route edges="78116626#4 449593807 78108615#0 450903750#2 450903750#3 450903750#4 78102715#2 78102715#3 78102715#4 78102715#5 78102715#6 78102715#7 -179061665"/>
    </vehicle>
    <vehicle id="46" depart="18.40">
        <route edges="190682782#6 190682782#7 190682782#8 190682782#9 190682782#10 995426422#2 995426422#3 179061730 454296737#0 454296737#1 454296737#2 454296737#3 454296737#4 179062646 78107580#1 78111091#0 78111091#1"/>
    </vehicle>
    <vehicle id="47" depart="18.80">
        <route edges="179061677 1044580300 455836462 1044580301#0 1044580301#1 1219108106 78115060#0 78115060#1 380627284#0 995426422#1 995426422#2 995426422#3 -179061677 -179061665 -179061671"/>
    </vehicle>
    <vehicle id="48" depart="19.20">
        <route edges="78107580#1 78111091#0 78111091#1 450903749#0 78102715#3 78102715#4 1044584957#2 1044584957#3 78111307#4 78111307#5 78111307#6"/>
    </vehicle>
    <vehicle id="49" depart="19.60">
        <route edges="179062649 78099447#1 175650574#0 179062645#1 78099777#3 456440946#6 450903755#0 175649854#1 179062643 78108615#0 450903750#2 450903750#3 656972743#7 455830896#0 78111307#0"/>
    </vehicle>
    <vehicle id="50" depart="20.00">
        <route edges="656972743#4 450903755#4 78102715#4 78102715#5 78102715#6 78102715#7 -179061665"/>
    </vehicle>
    <vehicle id="51" depart="20.40">
        <route edges="203959698#0 203959698#1 78099777#0 78099777#1 78105255#7 450903750#0 450903750#1 450903750#2 78111307#1 450903749#3"/>
    </vehicle>
    <vehicle id="52" depart="20.80">
        <route edges="450903749#1 656972743#6 656972743#7 455830896#0 455830896#1 442200086#0 442200086#1 203959698#0"/>
    </vehicle>
    <vehicle id="53" depart="21.20">
        <route edges="179061645 179061659 179061671 179061665 78106531#0 190682782#9 190682782#10 995426422#2 78117718#0 455836460 -1044580300"/>
    </vehicle>
    <vehicle id="54" depart="21.60">
        <route edges="442200086#1 203959698#0 203959698#1 78099777#0 78099777#1 78105255#7 450903750#0 450903750#1 450903750#2 78111307#1"/>
    </vehicle>
    <vehicle id="55" depart="22.00">
        <route edges="78106851 995426422#0 995426422#1 995426422#2 995426422#3 179061730 454296737#0 454296737#1 1044584957#0 1044584957#1"/>
    </vehicle>
    <vehicle id="57" depart="22.80">
        <route edges="455836460 -1044580300 -179061677 -179061665 -179061671 -179061659 78104772 78116626#0 78116626#1 78109287#8"/>
    </vehicle>
    <vehicle id="58" depart="23.20">
        <route edges="380627284#2 78117258#1 78117258#2 656972743#0 656972743#1 656972743#2 78109287#10 78109287#11 454296737#1 454296737#2 454296737#3 450903749#0 78102715#3"/>
    </vehicle>
    <vehicle id="59" depart="23.60">
        <route edges="78102715#6 78102715#7 78106531#0 78106531#1 78106531#2 78106531#3 995426421#1 995426421#2"/>
    </vehicle>
    <vehicle id="61" depart="24.40">
        <route edges="78106531#2 380627284#2 78117258#1 190682782#8 190682782#9 190682782#10 995426422#2 78117718#0 78117718#1 1044580301#0 1044580301#1"/>
    </vehicle>
    <vehicle id="62" depart="24.80">
        <route edges="455830896#1 442200086#0 78113652 78099447#0 78099447#1 175650574#0 179062645#1 78099777#3 456440946#6 450903755#0 450903755#1 450903755#2 78111307#3 1044584957#4 1044584957#5 175649854#0"/>
    </vehicle>
    <vehicle id="63" depart="25.20">
        <route edges="217050242#3 217050242#4 217050242#5 656972743#1 656972743#2 656972743#3 656972743#4 656972743#5 450903749#2 450903749#3 450903749#4 179062645#0 179062645#1 78099777#3 456440946#6 450903755#0"/>
    </vehicle>
    <vehicle id="64" depart="25.60">
        <route edges="78106531#3 995426421#1 78117258#0 78117258#1 78117258#2 656972743#0 656972743#1 656972743#2 78109287#10 78102715#6"/>
    </vehicle>
    <vehicle id="65" depart="26.00">
        <route edges="995426422#0 995426422#1 995426422#2 995426422#3 179061730 454296737#0 454296737#1 454296737#2 454296737#3 454296737#4 454296737#5 78110528 549192578#0 549192578#1 455830896#0 455830896#1"/>
    </vehicle>
    <vehicle id="66" depart="26.40">
        <route edges="78111307#5 217050242#7 78116626#1 78116626#2 78116626#3 450903755#2 450903755#3 656972743#5 656972743#6 450903750#4 450903750#5 179062646 78107580#1 78111091#0"/>
    </vehicle>
    <vehicle id="68" depart="27.20">
        <route edges="78098364#2 179061697 179739481 179061710#0 179061710#1 179061645 179061659 179061671 179061665 179061677 1044580300 455836462 1044580301#0 1044580301#1"/>
    </vehicle>
    <vehicle id="69" depart="27.60">
        <route edges="78111307#5 217050242#7 78116626#1 78116626#2 78116626#3 450903755#2 450903755#3 656972743#5 450903749#2"/>
    </vehicle>
    <vehicle id="70" depart="28.00">
        <route edges="217050242#4 217050242#5 656972743#1 656972743#2 78109287#10 78102715#6 78102715#7 78106531#0 190682782#9 190682782#10 995426422#2 995426422#3 179061730"/>
    </vehicle>
    <vehicle id="71" depart="28.40">
        <route edges="179061659 179061671 179061665 179061677 1044580300"/>
    </vehicle>
    <vehicle id="72" depart="28.80">
        <route edges="-179061671 -179061659 78104772 1103886702 179739481 179061710#0 179061710#1 179061645 179061659 78112917#0 190682782#7 190682782#8"/>
    </vehicle>
    <vehicle id="74" depart="29.60">
        <route edges="78115060#0 78115060#1 380627284#0 380627284#1 380627284#2 380627284#3 380627284#4 380627284#5 78098364#1 190682782#5"/>
    </vehicle>
    <vehicle id="75" depart="30.00">
        <route edges="78111307#0 78111307#1 78111307#2 450903755#3 450903755#4 450903755#5 450903755#6 179062648#0 78109562#1 454415692#1 454296737#2"/>
    </vehicle>
    <vehicle id="77" depart="30.80">
        <route edges="1103886702 179739481 179061710#0 179061710#1 179061645 179061659 179061671 179061665 179061677 1044580300 455836462 1044580301#0 1044580301#1 1219108106 78115060#0"/>
    </vehicle>
    <vehicle id="78" depart="31.20">
        <route edges="203959698#1 78099777#0 78099777#1 78099777#2 78099777#3 456440946#6 450903755#0 450903755#1 450903755#2 78111307#3 78111307#4 78111307#5 217050242#7 217050242#8 179061741#1 78109287#7"/>
    </vehicle>
    <vehicle id="79" depart="31.60">
        <route edges="179062648#0 78109562#1 454415692#1 454296737#2 454296737#3 450903749#0 78102715#3 450903755#5 78106496"/>
    </vehicle>
    <vehicle id="80" depart="32.00">
        <route edges="175650574#0 179062645#1 78099777#3 456440946#6 450903755#0 175649854#1 179062643 78108615#0 450903750#2 450903750#3 450903750#4 450903750#5"/>
    </vehicle>
    <vehicle id="81" depart="32.40">
        <route edges="995426421#2 995426421#3 205581466#0 380627284#5"/>
    </vehicle>
    <vehicle id="83" depart="33.20">
        <route edges="217050242#4 217050242#5 656972743#1 656972743#2 78109287#10 78102715#6 78102715#7 -179061665 656972743#0"/>
    </vehicle>
    <vehicle id="84" depart="33.60">
        <route edges="179062645#0 179062645#1 78099777#3 456440946#6 450903755#0 450903755#1 450903755#2 78111307#3 78111307#4 78109287#9 78109287#10 78109287#11 450903752#0 78109562#3"/>
    </vehicle>
    <vehicle id="85" depart="34.00">
        <route edges="450903750#1 450903750#2 450903750#3 450903750#4 450903750#5 179062646 78107580#1 78111091#0"/>
    </vehicle>
    <vehicle id="86" depart="34.40">
        <route edges="995426421#1 995426421#2 995426421#3 205581466#0 205581466#1 190682782#6 78112917#1"/>
    </vehicle>
    <vehicle id="87" depart="34.80">
        <route edges="450903750#2 78111307#1 78111307#2 78111307#3 78111307#4 78111307#5 78111307#6 -179061659 -179061645 179061707#0 179061707#1 -179739481 -179061697"/>
    </vehicle>
    <vehicle id="88" depart="35.20">
        <route edges="-179061645 179061707#0 179061707#1 -179739481 -179061697 179061741#0 179061741#1 78109287#7 78109287#8 78109287#9 656972743#3"/>
    </vehicle>
    <vehicle id="89" depart="35.60">
        <route edges="175650574#0 179062645#1 78099777#3 456440946#6 450903755#0 450903755#1 450903755#2 450903755#3 450903755#4 78102715#4 78102715#5 78102715#6 78102715#7 78106531#0 78106531#1 78106531#2 78106531#3 995426421#1 78117258#0"/>
    </vehicle>
    <vehicle id="90" depart="36.00">
        <route edges="179061741#2 175649854#0 450903755#1 450903755#2 450903755#3 450903755#4 78102715#4 78102715#5 78102715#6 78102715#7 179061677 1044580300 455836462 1044580301#0 1044580301#1 1219108106 78115060#0 78115060#1 380627284#0 995426422#1"/>
    </vehicle>
    <vehicle id="91" depart="36.40">
        <route edges="179062643 78105744#0 78105744#1 78099447#0"/>
    </vehicle>
    <vehicle id="92" depart="36.80">
        <route edges="78098364#0 78098364#1 78098364#2 179061741#0 179061741#1 179061741#2 175649854#0 175649854#1 179062643 78108615#0 450903750#2 450903750#3 450903750#4 450903750#5 454296737#5"/>
    </vehicle>
    <vehicle id="93" depart="37.20">
        <route edges="78116626#2 78116626#3 78116626#4 449593807 78105744#0"/>
    </vehicle>
    <vehicle id="94" depart="37.60">
        <route edges="450903750#1 450903750#2 78111307#1 450903749#3 450903749#4 179062645#0 179062645#1 78099777#3 456440946#6 450903755#0"/>
    </vehicle>
    <vehicle id="95" depart="38.00">
        <route edges="455830896#0 78111307#0 78111307#1 78111307#2 78111307#3 78111307#4 78111307#5 78111307#6 78112917#0 78112917#1 380627284#4 380627284#5"/>
    </vehicle>
    <vehicle id="96" depart="38.40">
        <route edges="-179061697 179061741#0 179061741#1 179061741#2 175649854#0 175649854#1 179062643 78105744#0 450903750#1"/>
    </vehicle>
    <vehicle id="97" depart="38.80">
        <route edges="455830896#1 442200086#0 442200086#1 203959698#0 203959698#1 78099777#0 78099777#1 78105255#7 450903750#0 450903750#1 450903750#2 450903750#3 656972743#7"/>
    </vehicle>
    <vehicle id="98" depart="39.20">
        <route edges="-179061665 656972743#0 656972743#1 656972743#2 656972743#3 656972743#4 656972743#5 656972743#6 656972743#7 455830896#0 455830896#1 442200086#0 442200086#1 203959698#0 203959698#1 78099777#0 78099777#1 78105255#7"/>
    </vehicle>
    <vehicle id="99" depart="39.60">
        <route edges="-319683135 455836462 1044580301#0"/>
    </vehicle>
    <vehicle id="100" depart="40.00">
        <route edges="78099777#3 456440946#6 450903755#0 175649854#1 179062643 78108615#0 450903750#2 450903750#3 450903750#4 450903750#5 454296737#5 78110528 549192578#0 549192578#1"/>
    </vehicle>
    <vehicle id="101" depart="40.40">
        <route edges="-179061659 78104772 78116626#0 78116626#1 78116626#2 78116626#3 450903755#2 450903755#3 450903755#4 450903755#5 450903755#6 179062648#0 78109562#1"/>
    </vehicle>
    <vehicle id="103" depart="41.20">
        <route edges="78099447#0 78099447#1 175650574#0 179062645#1 78099777#3 456440946#6 450903755#0 450903755#1 450903755#2 450903755#3 450903755#4 450903755#5"/>
    </vehicle>
    <vehicle id="104" depart="41.60">
        <route edges="1044584957#3 78111307#4 78109287#9 78109287#10 78102715#6 78102715#7"/>
    </vehicle>
    <vehicle id="105" depart="42.00">
        <route edges="78106531#0 78106531#1"/>
    </vehicle>
    <vehicle id="106" depart="42.40">
        <route edges="1044584957#1 78102715#5 78102715#6 78102715#7 179061677 1044580300 455836462 1044580301#0"/>
    </vehicle>
    <vehicle id="107" depart="42.80">
        <route edges="78098364#1 78098364#2 179061741#0 179061741#1 78109287#7 78109287#8 78109287#9"/>
    </vehicle>
    <vehicle id="108" depart="43.20">
        <route edges="78111307#0 78111307#1 78111307#2 78111307#3 78111307#4 78111307#5 78111307#6 78112917#0 78112917#1 380627284#4 205581466#1"/>
    </vehicle>
    <vehicle id="109" depart="43.60">
        <route edges="454296737#0 450903752#0 78109562#3 217050242#2 217050242#3 78102715#7 179061677 1044580300 455836462 1044580301#0 1044580301#1"/>
    </vehicle>
    <vehicle id="110" depart="44.00">
        <route edges="442200086#0 78113652 78099447#0 78099447#1 175650574#0 179062645#1 78099777#3 456440946#6 450903755#0 450903755#1 450903755#2 450903755#3 656972743#5 656972743#6"/>
    </vehicle>
    <vehicle id="111" depart="44.40">
        <route edges="380627284#0 380627284#1 78106531#3 995426421#1 995426421#2 995426421#3 205581466#0"/>
    </vehicle>
    <vehicle id="112" depart="44.80">
        <route edges="78116626#1 78109287#8 78111307#5 78111307#6 78112917#0 78112917#1 78112917#2 995426421#3 995426421#4"/>
    </vehicle>
    <vehicle id="114" depart="45.60">
        <route edges="-179061659 78104772 78116626#0 78116626#1 78109287#8 78109287#9 78109287#10 78109287#11 454296737#1 454296737#2 454296737#3 454296737#4"/>
    </vehicle>
    <vehicle id="115" depart="46.00">
        <route edges="78109287#8 78111307#5 78111307#6 -179061659 -179061645 179061707#0 179061707#1 -179739481 -179061697"/>
    </vehicle>
    <vehicle id="116" depart="46.40">
        <route edges="450903752#1 78112357#2 454415692#0 454415692#1 1044584957#0 1044584957#1"/>
    </vehicle>
    <vehicle id="117" depart="46.80">
        <route edges="549192578#0 78102715#1 78102715#2 78102715#3 78102715#4 78102715#5 78102715#6 78102715#7 78106531#0 78106531#1 78106531#2 380627284#2 380627284#3 380627284#4 380627284#5 78098364#1"/>
    </vehicle>
    <vehicle id="118" depart="47.20">
        <route edges="78112917#0 190682782#7 78117258#2 656972743#0 656972743#1 656972743#2 656972743#3 656972743#4 656972743#5 656972743#6 656972743#7 455830896#0 455830896#1 442200086#0 78113652"/>
    </vehicle>
    <vehicle id="119" depart="47.60">
        <route edges="1044580301#1 1219108106 78115060#0 78115060#1 380627284#0 995426422#1 995426422#2 995426422#3 179061730 454296737#0 454296737#1 454296737#2 454296737#3 450903749#0 450903749#1 450903749#2 450903749#3 449593807 78108615#0 450903750#2"/>
    </vehicle>
    <vehicle id="120" depart="48.00">
        <route edges="455836460 455836462 1044580301#0 1044580301#1 1219108106 78115060#0 78115060#1 78115060#2"/>
    </vehicle>
    <vehicle id="121" depart="48.40">
        <route edges="78111307#1 78111307#2 78111307#3 78111307#4 78111307#5"/>
    </vehicle>
    <vehicle id="122" depart="48.80">
        <route edges="78102715#6 78102715#7 179061677 1044580300 455836462 1044580301#0"/>
    </vehicle>
    <vehicle id="123" depart="49.20">
        <route edges="78112917#2 995426421#3 205581466#0 205581466#1 190682782#6 190682782#7 190682782#8"/>
    </vehicle>
    <vehicle id="124" depart="49.60">
        <route edges="179739481 179061710#0 179061710#1 179061645 179061659 78112917#0 190682782#7 78117258#2 656972743#0 656972743#1 656972743#2 78109287#10 78109287#11"/>
    </vehicle>
    <vehicle id="125" depart="50.00">
        <route edges="450903755#1 450903755#2 450903755#3 450903755#4 78102715#4 78102715#5 78102715#6 78102715#7 78106531#0 78106531#1 78106531#2 380627284#2 78117258#1"/>
    </vehicle>
    <vehicle id="126" depart="50.40">
        <route edges="1044584957#0 1044584957#1 1044584957#2 656972743#4 656972743#5 656972743#6"/>
    </vehicle>
    <vehicle id="127" depart="50.80">
        <route edges="179062648#1 78112357#4 78117607#1"/>
    </vehicle>
    <vehicle id="128" depart="51.20">
        <route edges="179062648#0 78109562#1 454415692#1 1044584957#0 1044584957#1 78102715#5 78102715#6 78102715#7 78106531#0 78106531#1 78106531#2 78106531#3 995426421#1"/>
    </vehicle>
    <vehicle id="129" depart="51.60">
        <route edges="190682782#7 78117258#2 656972743#0 656972743#1 656972743#2 656972743#3 656972743#4 656972743#5 656972743#6 656972743#7 455830896#0 455830896#1 442200086#0 78113652 78099447#0"/>
    </vehicle>
    <vehicle id="130" depart="52.00">
        <route edges="78107580#1 78111091#0 78111091#1 454296737#4 454296737#5 78110528 549192578#0 549192578#1 455830896#0 455830896#1 442200086#0 78113652 78099447#0"/>
    </vehicle>
    <vehicle id="131" depart="52.40">
        <route edges="995426421#1 78117258#0 78117258#1 78117258#2 656972743#0 656972743#1 656972743#2 78109287#10 78109287#11 454296737#1 454296737#2 454296737#3 450903749#0 78102715#3"/>
    </vehicle>
    <vehicle id="132" depart="52.80">
        <route edges="179062643 78108615#0 450903750#2 450903750#3 450903750#4 450903750#5 179062646 78107580#1 78111091#0 78109562#0"/>
    </vehicle>
    <vehicle id="133" depart="53.20">
        <route edges="450903749#3 449593807 78108615#0 450903750#2 450903750#3 450903750#4 78102715#2 78102715#3 78102715#4 1044584957#2"/>
    </vehicle>
    <vehicle id="134" depart="53.60">
        <route edges="450903755#5 450903755#6 454296737#3 454296737#4 454296737#5 78110528 549192578#0 549192578#1"/>
    </vehicle>
    <vehicle id="135" depart="54.00">
        <route edges="179062648#0 78109562#1 454415692#1 1044584957#0 1044584957#1 1044584957#2 1044584957#3 78111307#4 78111307#5 217050242#7 217050242#8"/>
    </vehicle>
    <vehicle id="136" depart="54.40">
        <route edges="179061645 179061659 78112917#0 190682782#7 78117258#2 656972743#0 656972743#1 656972743#2 656972743#3 656972743#4 656972743#5 656972743#6 450903750#4"/>
    </vehicle>
    <vehicle id="137" depart="54.80">
        <route edges="78102715#0 549192578#1 455830896#0 455830896#1 442200086#0 78113652"/>
    </vehicle>
    <vehicle id="138" depart="55.20">
        <route edges="450903752#1 78112357#2 454415692#0 454415692#1 454296737#2 454296737#3 454296737#4 179062646 78107580#1 78111091#0 78111091#1"/>
    </vehicle>
    <vehicle id="139" depart="55.60">
        <route edges="995426422#2 78117718#0 78117718#1 1044580301#0 1044580301#1"/>
    </vehicle>
    <vehicle id="140" depart="56.00">
        <route edges="78106531#3 995426421#1 78117258#0 78117258#1 78117258#2 656972743#0 656972743#1 656972743#2 656972743#3 656972743#4 656972743#5 450903749#2 450903749#3 450903749#4 179062645#0 179062645#1 78099777#3 456440946#6"/>
    </vehicle>
    <vehicle id="141" depart="56.40">
        <route edges="995426421#2 995426421#3 995426421#4"/>
    </vehicle>
    <vehicle id="142" depart="56.80">
        <route edges="78109287#10 78102715#6 217050242#4 217050242#5 217050242#6 78111307#6"/>
    </vehicle>
    <vehicle id="143" depart="57.20">
        <route edges="656972743#6 450903750#4 78102715#2 78102715#3 78102715#4 78102715#5 78102715#6 78102715#7 -179061665 -179061671 -179061659 78104772"/>
    </vehicle>
    <vehicle id="144" depart="57.60">
        <route edges="995426421#1 78117258#0 78117258#1 190682782#8 190682782#9 190682782#10 995426422#2 78117718#0 78117718#1"/>
    </vehicle>
    <vehicle id="145" depart="58.00">
        <route edges="78117718#0 455836460 -1044580300 179061730 454296737#0 454296737#1 454296737#2 454296737#3 450903749#0 450903749#1 450903749#2 450903749#3 449593807 78108615#0 78108615#1"/>
    </vehicle>
    <vehicle id="146" depart="58.40">
        <route edges="450903750#3 450903750#4 78102715#2 78102715#3 78102715#4 1044584957#2 1044584957#3 78111307#4 78111307#5 78111307#6 179061671"/>
    </vehicle>
    <vehicle id="147" depart="58.80">
        <route edges="549192578#0 78102715#1 78102715#2 78102715#3 78102715#4 78102715#5 78102715#6 78102715#7 78106531#0 78106531#1 78106531#2 380627284#2 380627284#3 380627284#4 380627284#5"/>
    </vehicle>
    <vehicle id="148" depart="59.20">
        <route edges="78112357#2"/>
    </vehicle>
    <vehicle id="149" depart="59.60">
        <route edges="454296737#0 450903752#0 78109562#3 217050242#2 217050242#3 217050242#4 217050242#5 217050242#6 217050242#7"/>
    </vehicle>