<?xml version="1.0" encoding="UTF-8"?>

<!-- generated on 2023-12-29 01:16:46.779531 by randomTrips.py v1_18_0+0000-03ecfdea036
<configuration>
    <net-file value="instancia1.net.xml"/>
    <route-file value="routesInstancia1.rou.xml"/>
    <random value="True"/>
    <end value="100.0"/>
    <period value="1.0"/>
</configuration>
-->

<!-- generated on 2023-12-29 01:16:46 by Eclipse SUMO duarouter Version 1.18.0
<configuration xmlns:xsi="http://www.w3.org/2001/XMLSchema-instance" xsi:noNamespaceSchemaLocation="http://sumo.dlr.de/xsd/duarouterConfiguration.xsd">

    <input>
        <net-file value="instancia1.net.xml"/>
        <route-files value="trips.trips.xml"/>
    </input>

    <output>
        <output-file value="routesInstancia1.rou.xml"/>
        <alternatives-output value="NUL"/>
    </output>

    <time>
        <begin value="0"/>
        <end value="100.0"/>
    </time>

    <report>
        <no-warnings value="true"/>
        <ignore-errors value="true"/>
        <no-step-log value="true"/>
    </report>

</configuration>
-->

<routes xmlns:xsi="http://www.w3.org/2001/XMLSchema-instance" xsi:noNamespaceSchemaLocation="http://sumo.dlr.de/xsd/routes_file.xsd">
    <vehicle id="0" depart="0.00">
        <route edges="78114859#4 78109287#4 78109287#5 78109287#6 179061741#2 175649854#0 175649854#1 179062645#0 175650574#1"/>
    </vehicle>
    <vehicle id="1" depart="1.00">
        <route edges="78114859#3 226079999#3 78113880#3 775246444#0 179062645#5 78106247#1"/>
    </vehicle>
    <vehicle id="2" depart="2.00">
        <route edges="78116626#3 78116626#4 450903749#4 179062645#0 179062645#1 179062645#2 179062645#3 78114859#2 78114859#3"/>
    </vehicle>
    <vehicle id="3" depart="3.00">
        <route edges="775246444#0 179062645#5"/>
    </vehicle>
    <vehicle id="4" depart="4.00">
        <route edges="226079999#0 226079999#1 78103558#1 456440946#5"/>
    </vehicle>
    <vehicle id="5" depart="5.00">
        <route edges="179061638#3 456440946#1 78106247#2 78106247#3 78109287#2"/>
    </vehicle>
    <vehicle id="6" depart="6.00">
        <route edges="78113880#3 456440946#3 78114859#3 226079999#3 226079999#4"/>
    </vehicle>
    <vehicle id="7" depart="7.00">
        <route edges="179062645#2 179062645#3 78114859#2 456440946#4 456440946#5 78099777#4 78103394#1 226079999#1 226079999#2"/>
    </vehicle>
    <vehicle id="8" depart="8.00">
        <route edges="226079999#3 78113880#3 456440946#3 456440946#4 78103558#2 179062645#3 78114859#2"/>
    </vehicle>
    <vehicle id="9" depart="9.00">
        <route edges="78116626#2 78116626#3 78116626#4 450903749#4 179062645#0 179062645#1 78099777#3"/>
    </vehicle>
    <vehicle id="10" depart="10.00">
        <route edges="179061638#2 179061638#3 456440946#1 456440946#2 456440946#3 78114859#3 78114859#4 78109287#4 78109287#5"/>
    </vehicle>
    <vehicle id="11" depart="11.00">
        <route edges="179062645#2 179062645#3 78114859#2 78114859#3 78114859#4 78109287#4 78109287#5 78109287#6 78109287#7 78116626#2 78116626#3"/>
    </vehicle>
    <vehicle id="12" depart="12.00">
        <route edges="78106247#2 226079999#5 179061638#3 456440946#1 456440946#2 456440946#3 456440946#4 78103558#2"/>
    </vehicle>
    <vehicle id="13" depart="13.00">
        <route edges="456440946#5 78099777#4 78103394#1 226079999#1 226079999#2 226079999#3 78113880#3 456440946#3"/>
    </vehicle>
    <vehicle id="14" depart="14.00">
        <route edges="456440946#4 456440946#5 78099777#4 78103394#1 226079999#1 78103558#1"/>
    </vehicle>
    <vehicle id="15" depart="15.00">
        <route edges="1044584957#5 226079999#0 226079999#1 226079999#2 226079999#3 226079999#4 226079999#5 179061638#3"/>
    </vehicle>
    <vehicle id="16" depart="16.00">
        <route edges="78109287#3 78109287#4 78103558#0 226079999#2 226079999#3 226079999#4 78106247#3"/>
    </vehicle>
    <vehicle id="17" depart="17.00">
        <route edges="175649854#1 179062645#0 179062645#1 179062645#2 179062645#3 179062645#4 179062645#5"/>
    </vehicle>
    <vehicle id="18" depart="18.00">
        <route edges="175650574#1 78103394#0 78103394#1 226079999#1 226079999#2 226079999#3 78113880#3"/>
    </vehicle>
    <vehicle id="19" depart="19.00">
        <route edges="78113880#3 456440946#3 78114859#3 78114859#4 78109287#4 78109287#5 78109287#6 78109287#7"/>
    </vehicle>
    <vehicle id="20" depart="20.00">
        <route edges="226079999#5 179061638#3 456440946#1 456440946#2 456440946#3 78114859#3 78114859#4"/>
    </vehicle>
    <vehicle id="21" depart="21.00">
        <route edges="78116626#2 1044584957#5 226079999#0 226079999#1 226079999#2 226079999#3 226079999#4 226079999#5 179061638#3"/>
    </vehicle>
    <vehicle id="22" depart="22.00">
        <route edges="175649854#0 175649854#1 179062645#0 179062645#1 78099777#3 456440946#6 450903755#0"/>
    </vehicle>
    <vehicle id="23" depart="23.00">
        <route edges="78103558#0 226079999#2 78114859#4 78109287#4"/>
    </vehicle>
    <vehicle id="24" depart="24.00">
        <route edges="775246444#0 179062645#5 78106247#1 456440946#2 456440946#3 456440946#4 456440946#5 78099777#4 78103394#1 226079999#1"/>
    </vehicle>
    <vehicle id="25" depart="25.00">
        <route edges="78109287#2 78113880#2 78113880#3 456440946#3 78114859#3 78114859#4"/>
    </vehicle>
    <vehicle id="26" depart="26.00">
        <route edges="450903755#1 78116626#4 450903749#4 179062645#0 175650574#1 78103394#0"/>
    </vehicle>
    <vehicle id="27" depart="27.00">
        <route edges="456440946#3 78114859#3 226079999#3 226079999#4 226079999#5"/>
    </vehicle>
    <vehicle id="28" depart="28.00">
        <route edges="226079999#0 376520422#0 78109287#6 78109287#7 78116626#2"/>
    </vehicle>
    <vehicle id="29" depart="29.00">
        <route edges="179061638#2 179061638#3 456440946#1 456440946#2 456440946#3 456440946#4 456440946#5 78099777#4 78103394#1 226079999#1 226079999#2"/>
    </vehicle>
    <vehicle id="30" depart="30.00">
        <route edges="179062645#1 179062645#2 179062645#3 78114859#2"/>
    </vehicle>
    <vehicle id="31" depart="31.00">
        <route edges="179062645#2 179062645#3 78114859#2 456440946#4 456440946#5 456440946#6 450903755#0 450903755#1"/>
    </vehicle>
    <vehicle id="32" depart="32.00">
        <route edges="775246444#0 179062645#5 78106247#1 456440946#2 456440946#3 456440946#4 456440946#5 456440946#6"/>
    </vehicle>
    <vehicle id="33" depart="33.00">
        <route edges="179062645#4 179062645#5 78106247#1 78106247#2 78106247#3 78109287#2"/>
    </vehicle>
    <vehicle id="34" depart="34.00">
        <route edges="456440946#2 775246444#0 179062645#5 179062645#6"/>
    </vehicle>
    <vehicle id="35" depart="35.00">
        <route edges="1044584957#5 226079999#0 226079999#1 78103558#1 78103558#2 179062645#3"/>
    </vehicle>
    <vehicle id="36" depart="36.00">
        <route edges="226079999#2 226079999#3 226079999#4 226079999#5 179061638#3 456440946#1 78106247#2"/>
    </vehicle>
    <vehicle id="37" depart="37.00">
        <route edges="179061741#2 226079999#0 226079999#1 226079999#2"/>
    </vehicle>
    <vehicle id="38" depart="38.00">
        <route edges="450903755#1 78116626#4 450903749#4 179062645#0 175650574#1 78103394#0 78103394#1 376520422#0 78109287#6 78109287#7 78116626#2 78116626#3"/>
    </vehicle>
    <vehicle id="39" depart="39.00">
        <route edges="78113880#2 78113880#3 456440946#3 456440946#4 456440946#5 78099777#4"/>
    </vehicle>
    <vehicle id="40" depart="40.00">
        <route edges="450903755#0 175649854#1 179062645#0 175650574#1 78103394#0 78103394#1 226079999#1 226079999#2 226079999#3 78113880#3 456440946#3"/>
    </vehicle>
    <vehicle id="41" depart="41.00">
        <route edges="78109287#4 78103558#0 226079999#2"/>
    </vehicle>
    <vehicle id="42" depart="42.00">
        <route edges="78109287#2 78113880#2 78113880#3"/>
    </vehicle>
    <vehicle id="43" depart="43.00">
        <route edges="226079999#0 226079999#1 226079999#2 226079999#3 226079999#4 78106247#3 78109287#2"/>
    </vehicle>
    <vehicle id="44" depart="44.00">
        <route edges="78109287#7 78116626#2 1044584957#5 226079999#0 226079999#1 226079999#2 226079999#3 226079999#4 226079999#5 179061638#3 456440946#1 456440946#2"/>
    </vehicle>
    <vehicle id="45" depart="45.00">
        <route edges="226079999#5 179061638#3 456440946#1 456440946#2 456440946#3 78114859#3 226079999#3"/>
    </vehicle>
    <vehicle id="46" depart="46.00">
        <route edges="78113880#2 78113880#3 456440946#3 456440946#4"/>
    </vehicle>
    <vehicle id="47" depart="47.00">
        <route edges="226079999#4 226079999#5 179061638#3 456440946#1 456440946#2 456440946#3 78114859#3 226079999#3"/>
    </vehicle>
    <vehicle id="48" depart="48.00">
        <route edges="78109287#3 78109287#4 78103558#0 226079999#2 226079999#3 78113880#3 456440946#3 78114859#3"/>
    </vehicle>
    <vehicle id="49" depart="49.00">
        <route edges="456440946#6 78103394#0 78103394#1 226079999#1 226079999#2 78114859#4 78109287#4 78103558#0"/>
    </vehicle>
    <vehicle id="50" depart="50.00">
        <route edges="456440946#5 78099777#4 78103394#1 226079999#1 226079999#2 226079999#3 226079999#4 78106247#3 78109287#2 78113880#2"/>
    </vehicle>
    <vehicle id="51" depart="51.00">
        <route edges="78116626#2 78116626#3 78116626#4 450903749#4 179062645#0 179062645#1 179062645#2 179062645#3 179062645#4 179062645#5"/>
    </vehicle>
    <vehicle id="52" depart="52.00">
        <route edges="175649854#0 175649854#1 179062645#0 179062645#1 179062645#2 179062645#3 179062645#4 179062645#5"/>
    </vehicle>
    <vehicle id="53" depart="53.00">
        <route edges="78106247#3 78109287#2 78109287#3 78109287#4 78109287#5 78109287#6 179061741#2 175649854#0 450903755#1 78116626#4 450903749#4"/>
    </vehicle>
    <vehicle id="54" depart="54.00">
        <route edges="78106247#2 226079999#5 179061638#3"/>
    </vehicle>
    <vehicle id="55" depart="55.00">
        <route edges="78116626#2 1044584957#5 226079999#0 226079999#1 226079999#2 226079999#3 78113880#3 456440946#3"/>
    </vehicle>
    <vehicle id="56" depart="56.00">
        <route edges="78109287#2 78109287#3 78109287#4 78109287#5 78109287#6 179061741#2 175649854#0 175649854#1 179062645#0 175650574#1"/>
    </vehicle>
    <vehicle id="57" depart="57.00">
        <route edges="78109287#3 78109287#4 78103558#0 226079999#2 78114859#4"/>
    </vehicle>
    <vehicle id="58" depart="58.00">
        <route edges="78099777#4 78103394#1 226079999#1 78103558#1 78103558#2 179062645#3"/>
    </vehicle>
    <vehicle id="59" depart="59.00">
        <route edges="78106247#3 78109287#2 78113880#2 226079999#4 226079999#5 179061638#3 456440946#1 456440946#2"/>
    </vehicle>
    <vehicle id="60" depart="60.00">
        <route edges="78114859#4 78109287#4 78109287#5 78109287#6 179061741#2 175649854#0 175649854#1 179062645#0 179062645#1 78099777#3"/>
    </vehicle>
    <vehicle id="61" depart="61.00">
        <route edges="78109287#7 78116626#2 1044584957#5 226079999#0 226079999#1 226079999#2 226079999#3 226079999#4 226079999#5 179061638#3 179061638#4"/>
    </vehicle>
    <vehicle id="62" depart="62.00">
        <route edges="78109287#5 78109287#6 78109287#7 78116626#2 1044584957#5"/>
    </vehicle>
    <vehicle id="63" depart="63.00">
        <route edges="78099777#4 78103394#1 226079999#1 78103558#1 456440946#5"/>
    </vehicle>
    <vehicle id="64" depart="64.00">
        <route edges="78099777#3 78099777#4 78103394#1 376520422#0 78109287#6"/>
    </vehicle>
    <vehicle id="65" depart="65.00">
        <route edges="179061741#2 226079999#0 226079999#1 226079999#2 226079999#3"/>
    </vehicle>
    <vehicle id="66" depart="66.00">
        <route edges="78099777#4 78103394#1 226079999#1 226079999#2 226079999#3 78113880#3 775246444#0 179062645#5"/>
    </vehicle>
    <vehicle id="67" depart="67.00">
        <route edges="226079999#3 78113880#3 456440946#3 456440946#4 456440946#5 78099777#4 78103394#1 376520422#0"/>
    </vehicle>
    <vehicle id="68" depart="68.00">
        <route edges="78116626#3 78116626#4 450903749#4 179062645#0 175650574#1 78103394#0 78103394#1 226079999#1 226079999#2 226079999#3 226079999#4 226079999#5 179061638#3 179061638#4"/>
    </vehicle>
    <vehicle id="69" depart="69.00">
        <route edges="226079999#4 78106247#3 78109287#2 78109287#3 78109287#4 78109287#5 78109287#6"/>
    </vehicle>
    <vehicle id="70" depart="70.00">
        <route edges="456440946#4 456440946#5 78099777#4 78103394#1 376520422#0 78109287#6 179061741#2 226079999#0"/>
    </vehicle>
    <vehicle id="71" depart="71.00">
        <route edges="456440946#4 78103558#2"/>
    </vehicle>
    <vehicle id="72" depart="72.00">
        <route edges="226079999#0 226079999#1 78103558#1 78103558#2"/>
    </vehicle>
    <vehicle id="73" depart="73.00">
        <route edges="450903749#4 179062645#0 175650574#1 78103394#0"/>
    </vehicle>
    <vehicle id="74" depart="74.00">
        <route edges="78099777#4 78103394#1 226079999#1 78103558#1 456440946#5 456440946#6 450903755#0 450903755#1 78116626#4"/>
    </vehicle>
    <vehicle id="75" depart="75.00">
        <route edges="78109287#4 78103558#0 226079999#2 226079999#3 226079999#4 78106247#3 78109287#2 78113880#2"/>
    </vehicle>
    <vehicle id="76" depart="76.00">
        <route edges="78109287#7 78116626#2 1044584957#5 226079999#0 226079999#1 226079999#2 226079999#3 226079999#4 78106247#3"/>
    </vehicle>
    <vehicle id="77" depart="77.00">
        <route edges="78106247#3 78109287#2 78109287#3 78109287#4 78109287#5 78109287#6 179061741#2 175649854#0"/>
    </vehicle>
    <vehicle id="78" depart="78.00">
        <route edges="456440946#2 456440946#3 78114859#3 78114859#4 78109287#4 78109287#5 78109287#6 78109287#7 78116626#2 1044584957#5"/>
    </vehicle>
    <vehicle id="79" depart="79.00">
        <route edges="78103394#1 226079999#1 78103558#1 456440946#5 456440946#6 450903755#0 175649854#1 179062645#0 179062645#1 179062645#2"/>
    </vehicle>
    <vehicle id="80" depart="80.00">
        <route edges="78099777#3 78099777#4 78103394#1 226079999#1 226079999#2 226079999#3 78113880#3 775246444#0"/>
    </vehicle>
    <vehicle id="81" depart="81.00">
        <route edges="226079999#5 179061638#3 456440946#1 456440946#2 456440946#3 78114859#3 78114859#4"/>
    </vehicle>
    <vehicle id="82" depart="82.00">
        <route edges="78109287#5 78109287#6 179061741#2 226079999#0 226079999#1 226079999#2 226079999#3 78113880#3 456440946#3"/>
    </vehicle>
    <vehicle id="83" depart="83.00">
        <route edges="78114859#3 226079999#3 226079999#4 226079999#5 179061638#3 456440946#1"/>
    </vehicle>
    <vehicle id="84" depart="84.00">
        <route edges="78103558#1 456440946#5 78099777#4 78103394#1 226079999#1 226079999#2"/>
    </vehicle>
    <vehicle id="85" depart="85.00">
        <route edges="456440946#6 78103394#0 78103394#1 226079999#1"/>
    </vehicle>
    <vehicle id="86" depart="86.00">
        <route edges="450903755#1 78116626#4 450903749#4 179062645#0 175650574#1 78103394#0 78103394#1 376520422#0 78109287#6 179061741#2 175649854#0"/>
    </vehicle>
    <vehicle id="87" depart="87.00">
        <route edges="179061741#2 226079999#0 226079999#1 78103558#1 456440946#5 456440946#6 450903755#0"/>
    </vehicle>
    <vehicle id="88" depart="88.00">
        <route edges="78113880#3 456440946#3 456440946#4 456440946#5 456440946#6 450903755#0"/>
    </vehicle>
    <vehicle id="89" depart="89.00">
        <route edges="78103394#1 226079999#1 78103558#1 456440946#5 456440946#6 450903755#0 450903755#1"/>
    </vehicle>
    <vehicle id="90" depart="90.00">
        <route edges="456440946#5 456440946#6 450903755#0 175649854#1 179062645#0 179062645#1 179062645#2 179062645#3 78114859#2 456440946#4"/>
    </vehicle>
    <vehicle id="91" depart="91.00">
        <route edges="179062645#4 179062645#5 78106247#1 456440946#2 456440946#3 456440946#4 456440946#5 456440946#6 450903755#0 450903755#1 78116626#4 450903749#4"/>
    </vehicle>
    <vehicle id="92" depart="92.00">
        <route edges="179062645#2 179062645#3 179062645#4 179062645#5 78106247#1 456440946#2"/>
    </vehicle>
    <vehicle id="93" depart="93.00">
        <route edges="78116626#4 450903749#4 179062645#0 175650574#1"/>
    </vehicle>
    <vehicle id="94" depart="94.00">
        <route edges="179061638#3 456440946#1 456440946#2 456440946#3 456440946#4 456440946#5 456440946#6 450903755#0 450903755#1 78116626#4 450903749#4"/>
    </vehicle>
    <vehicle id="95" depart="95.00">
        <route edges="78114859#2 78114859#3 226079999#3 78113880#3 775246444#0"/>
    </vehicle>
    <vehicle id="96" depart="96.00">
        <route edges="456440946#2 456440946#3 456440946#4 456440946#5 456440946#6"/>
    </vehicle>
    <vehicle id="97" depart="97.00">
        <route edges="226079999#3 78113880#3 456440946#3 456440946#4 456440946#5 456440946#6 450903755#0 175649854#1"/>
    </vehicle>
    <vehicle id="98" depart="98.00">
        <route edges="179062645#0 175650574#1 78103394#0 78103394#1 376520422#0 78109287#6 78109287#7 78116626#2 78116626#3"/>
    </vehicle>
    <vehicle id="99" depart="99.00">
        <route edges="78099777#4 78103394#1 226079999#1 78103558#1 456440946#5 456440946#6 450903755#0 175649854#1 179062645#0 179062645#1 179062645#2"/>
    </vehicle>
</routes>
