<?xml version="1.0" encoding="UTF-8"?>

<!-- generated on 2023-12-26 15:23:50.406137 by randomTrips.py v1_18_0+0000-03ecfdea036
<configuration>
    <net-file value="InstanciaChiquita.net.xml"/>
    <route-file value="routesChiquita.rou.xml"/>
    <random value="True"/>
    <end value="100.0"/>
    <period value="1.0"/>
</configuration>
-->

<!-- generated on 2023-12-26 15:23:50 by Eclipse SUMO duarouter Version 1.18.0
<configuration xmlns:xsi="http://www.w3.org/2001/XMLSchema-instance" xsi:noNamespaceSchemaLocation="http://sumo.dlr.de/xsd/duarouterConfiguration.xsd">

    <input>
        <net-file value="InstanciaChiquita.net.xml"/>
        <route-files value="trips.trips.xml"/>
    </input>

    <output>
        <output-file value="routesChiquita.rou.xml"/>
        <alternatives-output value="NUL"/>
    </output>

    <time>
        <begin value="0"/>
        <end value="100.0"/>
    </time>

    <report>
        <no-warnings value="true"/>
        <ignore-errors value="true"/>
        <no-step-log value="true"/>
    </report>

</configuration>
-->

<routes xmlns:xsi="http://www.w3.org/2001/XMLSchema-instance" xsi:noNamespaceSchemaLocation="http://sumo.dlr.de/xsd/routes_file.xsd">
    <vehicle id="0" depart="0.00">
        <route edges="78117258#2 -179061671 -179061659 78104772 1103886702 179739481 179061710#0"/>
    </vehicle>
    <vehicle id="1" depart="1.00">
        <route edges="78102715#7 -179061665 -179061671 -179061659 -179061645 179061707#0 179061707#1 -179739481"/>
    </vehicle>
    <vehicle id="2" depart="2.00">
        <route edges="78111307#6 78112917#0 78112917#1 380627284#4 380627284#5 78098364#1 78098364#2"/>
    </vehicle>
    <vehicle id="3" depart="3.00">
        <route edges="217050242#4 217050242#5 217050242#6 78111307#6 78112917#0 78112917#1 78112917#2 995426421#3 995426421#4 78098364#0"/>
    </vehicle>
    <vehicle id="4" depart="4.00">
        <route edges="78112917#2 995426421#3 205581466#0 205581466#1 190682782#6 190682782#7 190682782#8 78106531#1 78106531#2 78106531#3 995426421#1 995426421#2"/>
    </vehicle>
    <vehicle id="5" depart="5.00">
        <route edges="-179061671 -179061659 78104772 78116626#0"/>
    </vehicle>
    <vehicle id="6" depart="6.00">
        <route edges="-179739481 -179061697 -179061667 78106219#0 190682782#4 190682782#5 190682782#6 190682782#7 190682782#8 78106531#1 78106531#2 78106531#3 995426421#1"/>
    </vehicle>
    <vehicle id="7" depart="7.00">
        <route edges="190682782#8 78106531#1 78106531#2 380627284#2 380627284#3 380627284#4 380627284#5 78098364#1 78098364#2 179061741#0"/>
    </vehicle>
    <vehicle id="8" depart="8.00">
        <route edges="190682782#6 190682782#7 78117258#2 -179061671 -179061659 -179061645 179061707#0 179061707#1"/>
    </vehicle>
    <vehicle id="10" depart="10.00">
        <route edges="179061707#1 -179739481 -179061697 -179061667 78106219#0 78106219#1"/>
    </vehicle>
    <vehicle id="11" depart="11.00">
        <route edges="78106531#2 380627284#2 78117258#1 78117258#2 656972743#0 217050242#6 217050242#7"/>
    </vehicle>
    <vehicle id="12" depart="12.00">
        <route edges="1103886702 179739481 179061710#0 179061710#1 179061645 179061659 179061671 179061665 78106531#0 78106531#1 78106531#2 380627284#2 380627284#3"/>
    </vehicle>
    <vehicle id="13" depart="13.00">
        <route edges="217050242#5 217050242#6 78111307#6 -179061659 -179061645 179061707#0 179061707#1 -179739481 -179061697 -179061667"/>
    </vehicle>
    <vehicle id="14" depart="14.00">
        <route edges="744364738 78106219#0 190682782#4 190682782#5 190682782#6 190682782#7 190682782#8 78106531#1 78106531#2 78106531#3 995426421#1 995426421#2"/>
    </vehicle>
    <vehicle id="15" depart="15.00">
        <route edges="380627284#2 380627284#3 380627284#4 380627284#5 78098364#1 78098364#2 179061697"/>
    </vehicle>
    <vehicle id="16" depart="16.00">
        <route edges="78117258#1 190682782#8 78106531#1"/>
    </vehicle>
    <vehicle id="17" depart="17.00">
        <route edges="78098364#1 190682782#5 190682782#6 190682782#7 78117258#2 -179061671 -179061659 -179061645"/>
    </vehicle>
    <vehicle id="18" depart="18.00">
        <route edges="179061667 179061697 179739481 179061710#0 179061710#1 179061645 179061659 78112917#0 190682782#7 78117258#2"/>
    </vehicle>
    <vehicle id="19" depart="19.00">
        <route edges="179061707#0 179061707#1 -179739481 -179061697 -179061667 78106219#0 190682782#4 190682782#5 190682782#6 78112917#1 78112917#2 995426421#3 995426421#4 78098364#0"/>
    </vehicle>
    <vehicle id="20" depart="20.00">
        <route edges="179061671 179061665 78106531#0 78106531#1 78106531#2 78106531#3 995426421#1 995426421#2 995426421#3 205581466#0"/>
    </vehicle>
    <vehicle id="21" depart="21.00">
        <route edges="78112917#2 995426421#3 205581466#0 205581466#1 190682782#6 190682782#7 190682782#8 78106531#1 78106531#2 78106531#3 995426421#1 78117258#0"/>
    </vehicle>
    <vehicle id="22" depart="22.00">
        <route edges="179061707#1 -179739481 -179061697 -179061667 78106219#0 190682782#4 190682782#5 190682782#6 190682782#7 78117258#2 656972743#0 217050242#6 217050242#7"/>
    </vehicle>
    <vehicle id="23" depart="23.00">
        <route edges="78117258#1 190682782#8 78106531#1"/>
    </vehicle>
    <vehicle id="24" depart="24.00">
        <route edges="995426421#2 995426421#3 995426421#4 78098364#0 78098364#1 78098364#2 179061741#0"/>
    </vehicle>
    <vehicle id="25" depart="25.00">
        <route edges="-179061659 -179061645 179061707#0 179061707#1 -179739481 -179061697 -179061667 78106219#0 190682782#4 190682782#5"/>
    </vehicle>
    <vehicle id="26" depart="26.00">
        <route edges="380627284#4 380627284#5 380627284#6 78106219#2"/>
    </vehicle>
    <vehicle id="27" depart="27.00">
        <route edges="-179061645 179061707#0 179061707#1 -179739481 -179061697 -179061667 78106219#0 190682782#4 190682782#5 190682782#6 190682782#7 78117258#2 -179061671 -179061659 78104772 78116626#0"/>
    </vehicle>
    <vehicle id="28" depart="28.00">
        <route edges="179061665 78106531#0 78106531#1 78106531#2 380627284#2 380627284#3 380627284#4 380627284#5 380627284#6"/>
    </vehicle>
    <vehicle id="29" depart="29.00">
        <route edges="179061665 78106531#0 78106531#1 78106531#2 380627284#2 78117258#1 78117258#2 656972743#0 217050242#6"/>
    </vehicle>
    <vehicle id="30" depart="30.00">
        <route edges="78106531#0 78106531#1 78106531#2 380627284#2 78117258#1 78117258#2 179061665"/>
    </vehicle>
    <vehicle id="31" depart="31.00">
        <route edges="78098364#0 78098364#1 190682782#5 190682782#6 190682782#7 190682782#8 78106531#1 78106531#2 78106531#3 995426421#1 78117258#0"/>
    </vehicle>
    <vehicle id="33" depart="33.00">
        <route edges="179061707#1 -179739481 -179061697 -179061667 78106219#0 190682782#4 190682782#5 190682782#6 190682782#7 190682782#8 78106531#1 78106531#2 78106531#3 995426421#1"/>
    </vehicle>
    <vehicle id="34" depart="34.00">
        <route edges="179739481 179061710#0 179061710#1 179061645 179061659 78112917#0 190682782#7 78117258#2 -179061671 -179061659 78104772"/>
    </vehicle>
    <vehicle id="35" depart="35.00">
        <route edges="190682782#7 78117258#2 656972743#0 217050242#6 78111307#6 179061671"/>
    </vehicle>
    <vehicle id="36" depart="36.00">
        <route edges="78106531#3 995426421#1 995426421#2 995426421#3"/>
    </vehicle>
    <vehicle id="37" depart="37.00">
        <route edges="-179061667 78106219#0 190682782#4 190682782#5 190682782#6 190682782#7 190682782#8 78106531#1 78106531#2 78106531#3 995426421#1 78117258#0"/>
    </vehicle>
    <vehicle id="38" depart="38.00">
        <route edges="380627284#4 205581466#1 190682782#6 190682782#7 78117258#2 -179061671 -179061659 -179061645 179061707#0 179061707#1 -179739481"/>
    </vehicle>
    <vehicle id="39" depart="39.00">
        <route edges="78106531#2 380627284#2 380627284#3 380627284#4 380627284#5 78098364#1 78098364#2 179061741#0"/>
    </vehicle>
    <vehicle id="40" depart="40.00">
        <route edges="-179061697 -179061667 78106219#0 190682782#4 190682782#5 190682782#6 190682782#7 78117258#2"/>
    </vehicle>
    <vehicle id="41" depart="41.00">
        <route edges="995426421#1 995426421#2 995426421#3 995426421#4 78098364#0 78098364#1 78098364#2 179061741#0"/>
    </vehicle>
    <vehicle id="42" depart="42.00">
        <route edges="995426421#1 78117258#0 380627284#3 380627284#4 380627284#5"/>
    </vehicle>
    <vehicle id="43" depart="43.00">
        <route edges="-179061659 -179061645 179061707#0 179061707#1 -179739481 -179061697 -179061667 78106219#0 190682782#4 78098364#2"/>
    </vehicle>
    <vehicle id="44" depart="44.00">
        <route edges="179061707#0 179061707#1 -179739481 -179061697 -179061667 78106219#0 190682782#4"/>
    </vehicle>
    <vehicle id="45" depart="45.00">
        <route edges="1103886702 179739481 179061710#0"/>
    </vehicle>
    <vehicle id="46" depart="46.00">
        <route edges="179061710#1 179061645 179061659 179061671 179061665 78106531#0 78106531#1"/>
    </vehicle>
    <vehicle id="47" depart="47.00">
        <route edges="78102715#7 -179061665 656972743#0 217050242#6 217050242#7"/>
    </vehicle>
    <vehicle id="48" depart="48.00">
        <route edges="179061697 179739481 179061710#0 179061710#1 179061645 179061659 78112917#0 190682782#7 78117258#2 656972743#0 217050242#6"/>
    </vehicle>
    <vehicle id="49" depart="49.00">
        <route edges="190682782#8 78106531#1 78106531#2 380627284#2 380627284#3 380627284#4 380627284#5 78098364#1 78098364#2 179061697"/>
    </vehicle>
    <vehicle id="50" depart="50.00">
        <route edges="190682782#6 190682782#7 190682782#8 78106531#1 78106531#2 380627284#2"/>
    </vehicle>
    <vehicle id="51" depart="51.00">
        <route edges="78098364#2 179061697 179739481 179061710#0 179061710#1 179061645 179061659 179061671 179061665 78106531#0 78106531#1 78106531#2 380627284#2 78117258#1"/>
    </vehicle>
    <vehicle id="53" depart="53.00">
        <route edges="78111307#6 78112917#0 78112917#1 380627284#4"/>
    </vehicle>
    <vehicle id="54" depart="54.00">
        <route edges="380627284#4 380627284#5 78098364#1 78098364#2 179061697 179739481 179061710#0 179061710#1"/>
    </vehicle>
    <vehicle id="57" depart="57.00">
        <route edges="78117258#1 190682782#8 78106531#1 78106531#2 78106531#3 995426421#1 995426421#2 995426421#3 995426421#4"/>
    </vehicle>
    <vehicle id="58" depart="58.00">
        <route edges="179061659 78112917#0 78112917#1 380627284#4 380627284#5 78098364#1 78098364#2 179061741#0"/>
    </vehicle>
    <vehicle id="59" depart="59.00">
        <route edges="-179061665 656972743#0 217050242#6 78111307#6 78112917#0 78112917#1 78112917#2 995426421#3 995426421#4 78098364#0"/>
    </vehicle>
    <vehicle id="61" depart="61.00">
        <route edges="78104772 1103886702 179739481 179061710#0 179061710#1 179061645 179061659 78112917#0 190682782#7 78117258#2 656972743#0 217050242#6 78111307#6"/>
    </vehicle>
    <vehicle id="63" depart="63.00">
        <route edges="995426421#1 995426421#2 995426421#3 995426421#4"/>
    </vehicle>
    <vehicle id="65" depart="65.00">
        <route edges="205581466#0 205581466#1 190682782#6 190682782#7 78117258#2 656972743#0 217050242#6 217050242#7"/>
    </vehicle>
    <vehicle id="66" depart="66.00">
        <route edges="656972743#0 217050242#6 78111307#6 -179061659 78104772 1103886702 179739481 179061710#0"/>
    </vehicle>
    <vehicle id="67" depart="67.00">
        <route edges="190682782#5 190682782#6 190682782#7 78117258#2"/>
    </vehicle>
    <vehicle id="68" depart="68.00">
        <route edges="-179061645 179061707#0 179061707#1 -179739481 -179061697 -179061667 78106219#0 190682782#4 190682782#5 190682782#6 190682782#7 78117258#2 656972743#0 217050242#6 217050242#7"/>
    </vehicle>
    <vehicle id="69" depart="69.00">
        <route edges="179061710#1 179061645 179061659 78112917#0 78112917#1 78112917#2"/>
    </vehicle>
    <vehicle id="70" depart="70.00">
        <route edges="744364738 78106219#0 190682782#4 190682782#5 190682782#6 190682782#7 78117258#2 -179061671 -179061659 78104772"/>
    </vehicle>
    <vehicle id="71" depart="71.00">
        <route edges="78106531#3 995426421#1 995426421#2 995426421#3 205581466#0 205581466#1 190682782#6 190682782#7"/>
    </vehicle>
    <vehicle id="72" depart="72.00">
        <route edges="78106531#3 995426421#1 78117258#0 78117258#1 190682782#8"/>
    </vehicle>
    <vehicle id="73" depart="73.00">
        <route edges="78102715#7 78106531#0 78106531#1 78106531#2 380627284#2 380627284#3 380627284#4 380627284#5"/>
    </vehicle>
    <vehicle id="74" depart="74.00">
        <route edges="995426421#4 78098364#0 78098364#1 190682782#5"/>
    </vehicle>
    <vehicle id="75" depart="75.00">
        <route edges="995426421#2 995426421#3 205581466#0 205581466#1 190682782#6 190682782#7 190682782#8 78106531#1 78106531#2 380627284#2"/>
    </vehicle>
    <vehicle id="76" depart="76.00">
        <route edges="205581466#1 190682782#6 78112917#1 380627284#4 380627284#5 78098364#1 78098364#2 179061697"/>
    </vehicle>
    <vehicle id="77" depart="77.00">
        <route edges="179061645 179061659 78112917#0 78112917#1 380627284#4 380627284#5 78098364#1 78098364#2 -179061667 78106219#0 78106219#1"/>
    </vehicle>
    <vehicle id="78" depart="78.00">
        <route edges="78106531#3 995426421#1 78117258#0 78117258#1 78117258#2 656972743#0"/>
    </vehicle>
    <vehicle id="80" depart="80.00">
        <route edges="-179739481 -179061697 -179061667 78106219#0 190682782#4 190682782#5 190682782#6 190682782#7 78117258#2 -179061671"/>
    </vehicle>
    <vehicle id="81" depart="81.00">
        <route edges="656972743#0 217050242#6 78111307#6 -179061659 -179061645 179061707#0 179061707#1 -179739481 -179061697 -179061667 78106219#0"/>
    </vehicle>
    <vehicle id="82" depart="82.00">
        <route edges="205581466#0 205581466#1 190682782#6 78112917#1 380627284#4"/>
    </vehicle>
    <vehicle id="83" depart="83.00">
        <route edges="179061665 78106531#0 78106531#1 78106531#2 78106531#3 995426421#1"/>
    </vehicle>
    <vehicle id="84" depart="84.00">
        <route edges="380627284#4 205581466#1 190682782#6 190682782#7 78117258#2 656972743#0 217050242#6"/>
    </vehicle>
    <vehicle id="86" depart="86.00">
        <route edges="-179061659 78104772 78116626#0 217050242#8 217050242#9"/>
    </vehicle>
    <vehicle id="87" depart="87.00">
        <route edges="-179061697 -179061667 78106219#0 190682782#4 190682782#5 190682782#6 190682782#7 190682782#8 78106531#1 78106531#2"/>
    </vehicle>
    <vehicle id="88" depart="88.00">
        <route edges="78106531#0 78106531#1 78106531#2 380627284#2 78117258#1 78117258#2 656972743#0 217050242#6"/>
    </vehicle>
    <vehicle id="90" depart="90.00">
        <route edges="78117258#2 656972743#0"/>
    </vehicle>
    <vehicle id="91" depart="91.00">
        <route edges="179061707#1 -179739481 -179061697 -179061667 78106219#0 190682782#4 190682782#5 190682782#6 190682782#7 78117258#2 179061665"/>
    </vehicle>
    <vehicle id="92" depart="92.00">
        <route edges="380627284#2 78117258#1 78117258#2 -179061671 -179061659 -179061645 179061707#0"/>
    </vehicle>
    <vehicle id="93" depart="93.00">
        <route edges="78098364#2 -179061667 78106219#0 78106219#1 78106219#2"/>
    </vehicle>
    <vehicle id="94" depart="94.00">
        <route edges="78106531#1 78106531#2"/>
    </vehicle>
    <vehicle id="95" depart="95.00">
        <route edges="179061707#0 179061707#1 -179739481 -179061697 -179061667 78106219#0 78106219#1"/>
    </vehicle>
    <vehicle id="96" depart="96.00">
        <route edges="78102715#7 -179061665 -179061671 -179061659 -179061645 179061707#0"/>
    </vehicle>
    <vehicle id="97" depart="97.00">
        <route edges="190682782#4 190682782#5 190682782#6 190682782#7 190682782#8 78106531#1 78106531#2 380627284#2"/>
    </vehicle>
    <vehicle id="98" depart="98.00">
        <route edges="179739481 179061710#0 179061710#1 179061645 179061659 78112917#0 190682782#7 78117258#2 -179061671 -179061659 78104772 78116626#0"/>
    </vehicle>
    <vehicle id="99" depart="99.00">
        <route edges="-179061667 78106219#0"/>
    </vehicle>
</routes>
