<?xml version="1.0" encoding="UTF-8" standalone="no"?><!-- generated on 2023-12-15 01:13:12 by Eclipse SUMO netedit Version 1.19.0
<configuration xmlns:xsi="http://www.w3.org/2001/XMLSchema-instance" xsi:noNamespaceSchemaLocation="http://sumo.dlr.de/xsd/neteditConfiguration.xsd">

    <input>
        <sumo-net-file value="C:\Users\PC\Downloads\Sincronizacion-de-semaforos-main\InstanciaMediana.net.xml"/>
    </input>

    <output>
        <output-file value="C:\Users\PC\Downloads\Sincronizacion-de-semaforos-main\InstanciaMediana.net.xml"/>
    </output>

    <processing>
        <geometry.min-radius.fix.railways value="false"/>
        <geometry.max-grade.fix value="false"/>
        <offset.disable-normalization value="true"/>
        <lefthand value="0"/>
    </processing>

    <junctions>
        <no-turnarounds value="true"/>
        <junctions.corner-detail value="5"/>
        <junctions.limit-turn-speed value="5.50"/>
        <rectangular-lane-cut value="0"/>
    </junctions>

    <pedestrian>
        <walkingareas value="0"/>
    </pedestrian>

</configuration>
--><net xmlns:xsi="http://www.w3.org/2001/XMLSchema-instance" junctionCornerDetail="5" limitTurnSpeed="5.50" version="1.16" xsi:noNamespaceSchemaLocation="http://sumo.dlr.de/xsd/net_file.xsd">

    <location convBoundary="573660.12,-3863235.95,574207.84,-3862774.82" netOffset="0.00,0.00" origBoundary="-56.199827,-34.909212,-56.184937,-34.898649" projParameter="+proj=utm +zone=21 +ellps=WGS84 +datum=WGS84 +units=m +no_defs"/>

    <type allow="pedestrian" id="highway.footway" numLanes="1" oneway="1" priority="1" speed="2.78" width="2.00"/>
    <type allow="pedestrian" id="highway.pedestrian" numLanes="1" oneway="1" priority="1" speed="2.78" width="2.00"/>
    <type disallow="tram rail_urban rail rail_electric rail_fast ship" id="highway.residential" numLanes="1" oneway="0" priority="3" speed="13.89"/>
    <type disallow="tram rail_urban rail rail_electric rail_fast ship" id="highway.secondary" numLanes="1" oneway="0" priority="11" speed="27.78"/>
    <type allow="pedestrian" id="highway.steps" numLanes="1" oneway="1" priority="1" speed="1.39" width="2.00"/>
    <type disallow="tram rail_urban rail rail_electric rail_fast ship" id="highway.tertiary" numLanes="1" oneway="0" priority="10" speed="22.22"/>

    <edge function="internal" id=":1893973264_0">
        <lane disallow="tram rail_urban rail rail_electric rail_fast ship" id=":1893973264_0_0" index="0" length="4.88" shape="573875.89,-3862897.34 573874.37,-3862897.37 573873.33,-3862897.46 573872.30,-3862897.62 573870.80,-3862897.87" speed="12.50"/>
        <lane disallow="tram rail_urban rail rail_electric rail_fast ship" id=":1893973264_0_1" index="1" length="4.88" shape="573875.91,-3862900.54 573874.53,-3862900.57 573873.59,-3862900.65 573872.66,-3862900.80 573871.30,-3862901.03" speed="12.50"/>
    </edge>
    <edge function="internal" id=":1893973274_0">
        <lane disallow="tram rail_urban rail rail_electric rail_fast ship" id=":1893973274_0_0" index="0" length="0.54" shape="573905.36,-3862899.67 573905.29,-3862899.68 573905.23,-3862899.68 573905.18,-3862899.68 573905.10,-3862899.68" speed="12.50"/>
        <lane disallow="tram rail_urban rail rail_electric rail_fast ship" id=":1893973274_0_1" index="1" length="0.54" shape="573905.66,-3862902.86 573905.42,-3862902.88 573905.26,-3862902.89 573905.09,-3862902.89 573904.85,-3862902.87" speed="12.50"/>
    </edge>
    <edge function="internal" id=":1893973274_2">
        <lane disallow="tram rail_urban rail rail_electric rail_fast ship" id=":1893973274_2_0" index="0" length="1.62" shape="573904.36,-3862909.31 573906.25,-3862909.23" speed="12.50"/>
        <lane disallow="tram rail_urban rail rail_electric rail_fast ship" id=":1893973274_2_1" index="1" length="1.62" shape="573904.61,-3862906.07 573905.01,-3862906.04 573905.28,-3862906.05 573905.56,-3862906.07 573905.96,-3862906.05" speed="12.50"/>
    </edge>
    <edge function="internal" id=":1896395907_0">
        <lane disallow="tram rail_urban rail rail_electric rail_fast ship" id=":1896395907_0_0" index="0" length="0.10" shape="574108.95,-3862778.19 574108.95,-3862778.19" speed="12.50"/>
        <lane disallow="tram rail_urban rail rail_electric rail_fast ship" id=":1896395907_0_1" index="1" length="0.10" shape="574109.19,-3862781.39 574109.19,-3862781.39" speed="12.50"/>
    </edge>
    <edge function="internal" id=":917336870_0">
        <lane allow="bus bicycle" id=":917336870_0_0" index="0" length="9.01" shape="573781.57,-3863031.83 573781.73,-3863029.37 573782.64,-3863027.55 573784.30,-3863026.36 573786.71,-3863025.81" speed="6.51"/>
        <lane disallow="tram rail_urban rail rail_electric rail_fast ship" id=":917336870_0_1" index="1" length="11.70" shape="573781.57,-3863031.83 573781.62,-3863027.97 573782.45,-3863025.15 573784.06,-3863023.37 573786.44,-3863022.62" speed="7.33"/>
    </edge>
    <edge function="internal" id=":917336870_2">
        <lane disallow="tram rail_urban rail rail_electric rail_fast ship" id=":917336870_2_0" index="0" length="17.59" shape="573781.57,-3863031.83 573780.15,-3863014.29" speed="12.50"/>
        <lane disallow="tram rail_urban rail rail_electric rail_fast ship" id=":917336870_2_1" index="1" length="17.59" shape="573778.38,-3863032.08 573776.96,-3863014.56" speed="12.50"/>
    </edge>
    <edge function="internal" id=":917336870_4">
        <lane allow="bus bicycle" id=":917336870_4_0" index="0" length="14.43" shape="573772.32,-3863026.93 573786.71,-3863025.81" speed="12.50"/>
    </edge>
    <edge function="internal" id=":917336870_5">
        <lane allow="bus bicycle" id=":917336870_5_0" index="0" length="16.88" shape="573772.32,-3863026.93 573776.13,-3863025.90 573778.70,-3863023.45 573780.04,-3863019.58 573780.15,-3863014.29" speed="8.65"/>
    </edge>
    <edge function="internal" id=":917336870_6">
        <lane disallow="tram rail_urban rail rail_electric rail_fast ship" id=":917336870_6_0" index="0" length="14.39" shape="573772.08,-3863023.74 573786.44,-3863022.62" speed="12.50"/>
        <lane disallow="tram rail_urban rail rail_electric rail_fast ship" id=":917336870_6_1" index="1" length="14.39" shape="573771.85,-3863020.55 573786.18,-3863019.43" speed="12.50"/>
    </edge>
    <edge function="internal" id=":917336870_8">
        <lane disallow="tram rail_urban rail rail_electric rail_fast ship" id=":917336870_8_0" index="0" length="9.00" shape="573771.85,-3863020.55 573774.26,-3863020.02 573775.92,-3863018.85 573776.82,-3863017.03 573776.96,-3863014.56" speed="6.47"/>
    </edge>
    <edge function="internal" id=":917357642_0">
        <lane disallow="tram rail_urban rail rail_electric rail_fast ship" id=":917357642_0_0" index="0" length="11.23" shape="573999.41,-3863106.06 573988.22,-3863106.93" speed="12.50"/>
        <lane disallow="tram rail_urban rail rail_electric rail_fast ship" id=":917357642_0_1" index="1" length="11.23" shape="573999.66,-3863109.25 573988.46,-3863110.12" speed="12.50"/>
    </edge>
    <edge function="internal" id=":917357642_2">
        <lane disallow="tram rail_urban rail rail_electric rail_fast ship" id=":917357642_2_0" index="0" length="9.03" shape="573999.66,-3863109.25 573997.25,-3863109.79 573995.59,-3863110.98 573994.69,-3863112.81 573994.55,-3863115.28" speed="6.49"/>
    </edge>
    <edge function="internal" id=":917357642_3">
        <lane disallow="tram rail_urban rail rail_electric rail_fast ship" id=":917357642_3_0" index="0" length="9.03" shape="573993.37,-3863100.92 573993.21,-3863103.39 573992.30,-3863105.21 573990.64,-3863106.39 573988.22,-3863106.93" speed="6.50"/>
    </edge>
    <edge function="internal" id=":917357642_4">
        <lane disallow="tram rail_urban rail rail_electric rail_fast ship" id=":917357642_4_0" index="0" length="14.41" shape="573993.37,-3863100.92 573994.55,-3863115.28" speed="12.50"/>
    </edge>
    <edge function="internal" id=":917365340_0">
        <lane disallow="tram rail_urban rail rail_electric rail_fast ship" id=":917365340_0_0" index="0" length="14.37" shape="573983.54,-3862893.08 573969.20,-3862894.22" speed="12.50"/>
        <lane disallow="tram rail_urban rail rail_electric rail_fast ship" id=":917365340_0_1" index="1" length="14.37" shape="573983.78,-3862896.27 573969.46,-3862897.41" speed="12.50"/>
    </edge>
    <edge function="internal" id=":917365340_2">
        <lane disallow="tram rail_urban rail rail_electric rail_fast ship" id=":917365340_2_0" index="0" length="10.38" shape="573969.99,-3862903.79 573973.16,-3862903.88 573975.50,-3862904.74 573976.99,-3862906.37 573977.65,-3862908.78" speed="6.94"/>
    </edge>
    <edge function="internal" id=":917365340_3">
        <lane disallow="tram rail_urban rail rail_electric rail_fast ship" id=":917365340_3_0" index="0" length="14.33" shape="573969.99,-3862903.79 573984.26,-3862902.65" speed="12.50"/>
        <lane disallow="tram rail_urban rail rail_electric rail_fast ship" id=":917365340_3_1" index="1" length="14.33" shape="573969.73,-3862900.60 573984.02,-3862899.46" speed="12.50"/>
    </edge>
    <edge function="internal" id=":917365340_5">
        <lane disallow="tram rail_urban rail rail_electric rail_fast ship" id=":917365340_5_0" index="0" length="9.03" shape="573974.32,-3862888.18 573974.17,-3862890.65 573973.27,-3862892.48 573971.61,-3862893.67 573969.20,-3862894.22" speed="6.51"/>
    </edge>
    <edge function="internal" id=":917365340_6">
        <lane disallow="tram rail_urban rail rail_electric rail_fast ship" id=":917365340_6_0" index="0" length="20.87" shape="573974.32,-3862888.18 573977.65,-3862908.78" speed="12.50"/>
    </edge>
    <edge function="internal" id=":917365340_7">
        <lane disallow="tram rail_urban rail rail_electric rail_fast ship" id=":917365340_7_0" index="0" length="14.56" shape="573977.51,-3862887.92 573978.28,-3862893.13 573979.63,-3862896.79 573981.54,-3862898.90 573984.02,-3862899.46" speed="8.11"/>
    </edge>
    <edge function="internal" id=":917395545_0">
        <lane disallow="tram rail_urban rail rail_electric rail_fast ship" id=":917395545_0_0" index="0" length="9.03" shape="574101.71,-3863097.85 574099.23,-3863097.72 574097.40,-3863096.83 574096.22,-3863095.17 574095.69,-3863092.75" speed="6.48"/>
    </edge>
    <edge function="internal" id=":917395545_1">
        <lane disallow="tram rail_urban rail rail_electric rail_fast ship" id=":917395545_1_0" index="0" length="11.23" shape="574101.71,-3863097.85 574090.53,-3863098.80" speed="12.50"/>
        <lane disallow="tram rail_urban rail rail_electric rail_fast ship" id=":917395545_1_1" index="1" length="11.23" shape="574102.00,-3863101.04 574090.79,-3863101.99" speed="12.50"/>
    </edge>
    <edge function="internal" id=":917395545_3">
        <lane disallow="tram rail_urban rail rail_electric rail_fast ship" id=":917395545_3_0" index="0" length="14.42" shape="574096.85,-3863107.12 574095.69,-3863092.75" speed="12.50"/>
    </edge>
    <edge function="internal" id=":917395545_4">
        <lane disallow="tram rail_urban rail rail_electric rail_fast ship" id=":917395545_4_0" index="0" length="9.04" shape="574096.85,-3863107.12 574096.29,-3863104.71 574095.09,-3863103.05 574093.26,-3863102.14 574090.79,-3863101.99" speed="6.53"/>
    </edge>
    <edge function="internal" id=":917410869_0">
        <lane disallow="tram rail_urban rail rail_electric rail_fast ship" id=":917410869_0_0" index="0" length="11.20" shape="574008.33,-3863209.30 573997.17,-3863210.19" speed="12.50"/>
        <lane disallow="tram rail_urban rail rail_electric rail_fast ship" id=":917410869_0_1" index="1" length="11.20" shape="574008.58,-3863212.49 573997.42,-3863213.38" speed="12.50"/>
    </edge>
    <edge function="internal" id=":917410869_2">
        <lane disallow="tram rail_urban rail rail_electric rail_fast ship" id=":917410869_2_0" index="0" length="9.03" shape="574002.28,-3863204.16 574002.14,-3863206.63 574001.24,-3863208.46 573999.58,-3863209.65 573997.17,-3863210.19" speed="6.49"/>
    </edge>
    <edge function="internal" id=":917419492_0">
        <lane allow="bus bicycle" id=":917419492_0_0" index="0" length="9.06" shape="574089.12,-3863006.00 574089.29,-3863003.53 574090.21,-3863001.70 574091.89,-3863000.52 574094.32,-3862999.98" speed="6.52"/>
        <lane disallow="tram rail_urban rail rail_electric rail_fast ship" id=":917419492_0_1" index="1" length="11.75" shape="574089.12,-3863006.00 574089.18,-3863002.13 574090.03,-3862999.31 574091.66,-3862997.53 574094.07,-3862996.79" speed="7.33"/>
    </edge>
    <edge function="internal" id=":917419492_2">
        <lane disallow="tram rail_urban rail rail_electric rail_fast ship" id=":917419492_2_0" index="0" length="17.61" shape="574089.12,-3863006.00 574087.85,-3862988.43" speed="12.50"/>
    </edge>
    <edge function="internal" id=":917419492_3">
        <lane allow="bus bicycle" id=":917419492_3_0" index="0" length="11.24" shape="574083.12,-3863000.85 574094.32,-3862999.98" speed="12.50"/>
        <lane disallow="tram rail_urban rail rail_electric rail_fast ship" id=":917419492_3_1" index="1" length="11.24" shape="574082.87,-3862997.66 574094.07,-3862996.79" speed="12.50"/>
        <lane disallow="tram rail_urban rail rail_electric rail_fast ship" id=":917419492_3_2" index="2" length="11.24" shape="574082.62,-3862994.47 574093.83,-3862993.60" speed="12.50"/>
    </edge>
    <edge function="internal" id=":917419492_6">
        <lane disallow="tram rail_urban rail rail_electric rail_fast ship" id=":917419492_6_0" index="0" length="9.09" shape="574082.62,-3862994.47 574085.05,-3862993.92 574086.74,-3862992.74 574087.67,-3862990.91 574087.85,-3862988.43" speed="6.55"/>
    </edge>
    <edge function="internal" id=":917426019_0">
        <lane disallow="tram rail_urban rail rail_electric rail_fast ship" id=":917426019_0_0" index="0" length="9.02" shape="574197.11,-3863083.65 574196.96,-3863086.11 574196.06,-3863087.93 574194.40,-3863089.13 574191.98,-3863089.69" speed="6.52"/>
    </edge>
    <edge function="internal" id=":917426019_1">
        <lane disallow="tram rail_urban rail rail_electric rail_fast ship" id=":917426019_1_0" index="0" length="14.33" shape="574197.11,-3863083.65 574198.28,-3863097.94" speed="12.50"/>
        <lane disallow="tram rail_urban rail rail_electric rail_fast ship" id=":917426019_1_1" index="1" length="14.33" shape="574200.30,-3863083.39 574201.47,-3863097.68" speed="12.50"/>
    </edge>
    <edge function="internal" id=":917427188_0">
        <lane disallow="tram rail_urban rail rail_electric rail_fast ship" id=":917427188_0_0" index="0" length="9.03" shape="573903.41,-3863217.65 573900.94,-3863217.49 573899.12,-3863216.58 573897.94,-3863214.92 573897.42,-3863212.49" speed="6.49"/>
    </edge>
    <edge function="internal" id=":917427188_1">
        <lane disallow="tram rail_urban rail rail_electric rail_fast ship" id=":917427188_1_0" index="0" length="11.20" shape="573903.41,-3863217.65 573892.25,-3863218.54" speed="12.50"/>
        <lane disallow="tram rail_urban rail rail_electric rail_fast ship" id=":917427188_1_1" index="1" length="11.20" shape="573903.67,-3863220.84 573892.50,-3863221.73" speed="12.50"/>
    </edge>
    <edge function="internal" id=":917482509_0">
        <lane disallow="tram rail_urban rail rail_electric rail_fast ship" id=":917482509_0_0" index="0" length="14.16" shape="573692.58,-3863129.44 573688.79,-3863130.28 573686.18,-3863132.13 573684.74,-3863134.99 573684.47,-3863138.86" speed="8.00"/>
        <lane disallow="tram rail_urban rail rail_electric rail_fast ship" id=":917482509_0_1" index="1" length="9.01" shape="573692.82,-3863132.63 573690.41,-3863133.16 573688.75,-3863134.34 573687.83,-3863136.16 573687.66,-3863138.62" speed="6.51"/>
    </edge>
    <edge function="internal" id=":917482509_2">
        <lane disallow="tram rail_urban rail rail_electric rail_fast ship" id=":917482509_2_0" index="0" length="14.34" shape="573683.33,-3863124.59 573684.47,-3863138.86" speed="12.50"/>
        <lane disallow="tram rail_urban rail rail_electric rail_fast ship" id=":917482509_2_1" index="1" length="14.34" shape="573686.52,-3863124.31 573687.66,-3863138.62" speed="12.50"/>
    </edge>
    <edge function="internal" id=":917494347_0">
        <lane disallow="tram rail_urban rail rail_electric rail_fast ship" id=":917494347_0_0" index="0" length="14.46" shape="573768.52,-3862804.44 573754.08,-3862805.68" speed="12.50"/>
        <lane disallow="tram rail_urban rail rail_electric rail_fast ship" id=":917494347_0_1" index="1" length="14.46" shape="573768.76,-3862807.63 573754.38,-3862808.87" speed="12.50"/>
    </edge>
    <edge function="internal" id=":917494347_2">
        <lane disallow="tram rail_urban rail rail_electric rail_fast ship" id=":917494347_2_0" index="0" length="14.25" shape="573763.62,-3862813.68 573762.76,-3862809.86 573760.88,-3862807.26 573757.99,-3862805.86 573754.08,-3862805.68" speed="7.97"/>
        <lane disallow="tram rail_urban rail rail_electric rail_fast ship" id=":917494347_2_1" index="1" length="9.03" shape="573760.43,-3862813.94 573759.89,-3862811.52 573758.70,-3862809.86 573756.86,-3862808.98 573754.38,-3862808.87" speed="6.47"/>
    </edge>
    <edge function="internal" id=":917500210_0">
        <lane allow="bus bicycle" id=":917500210_0_0" index="0" length="9.02" shape="574184.11,-3862993.14 574186.58,-3862993.30 574188.41,-3862994.21 574189.60,-3862995.86 574190.14,-3862998.27" speed="6.51"/>
        <lane disallow="tram rail_urban rail rail_electric rail_fast ship" id=":917500210_0_1" index="1" length="14.16" shape="574183.87,-3862989.95 574187.74,-3862990.20 574190.61,-3862991.63 574192.48,-3862994.23 574193.33,-3862998.01" speed="8.01"/>
    </edge>
    <edge function="internal" id=":917500210_2">
        <lane disallow="tram rail_urban rail rail_electric rail_fast ship" id=":917500210_2_0" index="0" length="17.55" shape="574188.76,-3862980.77 574190.14,-3862998.27" speed="12.50"/>
        <lane disallow="tram rail_urban rail rail_electric rail_fast ship" id=":917500210_2_1" index="1" length="17.55" shape="574191.95,-3862980.52 574193.33,-3862998.01" speed="12.50"/>
    </edge>
    <edge function="internal" id=":917500859_0">
        <lane disallow="tram rail_urban rail rail_electric rail_fast ship" id=":917500859_0_0" index="0" length="9.12" shape="573776.99,-3862909.65 573774.48,-3862909.49 573772.63,-3862908.57 573771.43,-3862906.90 573770.88,-3862904.48" speed="6.55"/>
    </edge>
    <edge function="internal" id=":917500859_1">
        <lane disallow="tram rail_urban rail rail_electric rail_fast ship" id=":917500859_1_0" index="0" length="14.48" shape="573776.99,-3862909.65 573762.55,-3862910.77" speed="12.50"/>
        <lane disallow="tram rail_urban rail rail_electric rail_fast ship" id=":917500859_1_1" index="1" length="14.48" shape="573777.23,-3862912.84 573762.80,-3862913.96" speed="12.50"/>
    </edge>
    <edge function="internal" id=":917500859_3">
        <lane disallow="tram rail_urban rail rail_electric rail_fast ship" id=":917500859_3_0" index="0" length="9.03" shape="573772.59,-3862925.24 573772.73,-3862922.76 573773.63,-3862920.94 573775.29,-3862919.76 573777.71,-3862919.22" speed="6.49"/>
    </edge>
    <edge function="internal" id=":917500859_4">
        <lane disallow="tram rail_urban rail rail_electric rail_fast ship" id=":917500859_4_0" index="0" length="20.83" shape="573772.59,-3862925.24 573770.88,-3862904.48" speed="12.50"/>
        <lane disallow="tram rail_urban rail rail_electric rail_fast ship" id=":917500859_4_1" index="1" length="20.83" shape="573769.40,-3862925.51 573767.69,-3862904.74" speed="12.50"/>
    </edge>
    <edge function="internal" id=":917500859_6">
        <lane disallow="tram rail_urban rail rail_electric rail_fast ship" id=":917500859_6_0" index="0" length="14.62" shape="573769.40,-3862925.51 573768.60,-3862920.29 573767.24,-3862916.62 573765.31,-3862914.51 573762.80,-3862913.96" speed="8.13"/>
    </edge>
    <edge function="internal" id=":917500859_7">
        <lane disallow="tram rail_urban rail rail_electric rail_fast ship" id=":917500859_7_0" index="0" length="14.45" shape="573763.31,-3862920.34 573777.71,-3862919.22" speed="12.50"/>
        <lane disallow="tram rail_urban rail rail_electric rail_fast ship" id=":917500859_7_1" index="1" length="14.45" shape="573763.06,-3862917.15 573777.47,-3862916.03" speed="12.50"/>
    </edge>
    <edge function="internal" id=":917507232_0">
        <lane allow="bus bicycle" id=":917507232_0_0" index="0" length="11.22" shape="573980.61,-3863008.93 573991.79,-3863007.97" speed="12.50"/>
    </edge>
    <edge function="internal" id=":917507232_1">
        <lane disallow="tram rail_urban rail rail_electric rail_fast ship" id=":917507232_1_0" index="0" length="11.75" shape="573980.31,-3863005.74 573982.83,-3863006.06 573984.72,-3863007.55 573985.99,-3863010.20 573986.64,-3863014.02" speed="7.30"/>
    </edge>
    <edge function="internal" id=":917507232_2">
        <lane disallow="tram rail_urban rail rail_electric rail_fast ship" id=":917507232_2_0" index="0" length="11.29" shape="573980.31,-3863005.74 573991.54,-3863004.78" speed="12.50"/>
        <lane disallow="tram rail_urban rail rail_electric rail_fast ship" id=":917507232_2_1" index="1" length="11.29" shape="573980.02,-3863002.55 573991.29,-3863001.59" speed="12.50"/>
    </edge>
    <edge function="internal" id=":917507232_4">
        <lane disallow="tram rail_urban rail rail_electric rail_fast ship" id=":917507232_4_0" index="0" length="17.61" shape="573985.21,-3862996.46 573986.64,-3863014.02" speed="12.50"/>
    </edge>
    <edge function="internal" id=":917507232_5">
        <lane disallow="tram rail_urban rail rail_electric rail_fast ship" id=":917507232_5_0" index="0" length="11.74" shape="573985.21,-3862996.46 573985.88,-3863000.27 573987.17,-3863002.92 573989.05,-3863004.43 573991.54,-3863004.78" speed="7.35"/>
        <lane disallow="tram rail_urban rail rail_electric rail_fast ship" id=":917507232_5_1" index="1" length="9.06" shape="573985.21,-3862996.46 573985.77,-3862998.87 573986.97,-3863000.53 573988.81,-3863001.44 573991.29,-3863001.59" speed="6.54"/>
    </edge>
    <edge function="internal" id=":917508779_0">
        <lane disallow="tram rail_urban rail rail_electric rail_fast ship" id=":917508779_0_0" index="0" length="0.30" shape="574193.11,-3863034.84 574193.14,-3863035.14" speed="12.50"/>
        <lane disallow="tram rail_urban rail rail_electric rail_fast ship" id=":917508779_0_1" index="1" length="0.30" shape="574196.30,-3863034.58 574196.33,-3863034.88" speed="12.50"/>
    </edge>
    <edge function="internal" id=":917521463_0">
        <lane disallow="tram rail_urban rail rail_electric rail_fast ship" id=":917521463_0_0" index="0" length="4.09" shape="573853.90,-3862903.12 573852.94,-3862903.52 573852.25,-3862903.75 573851.55,-3862903.88 573850.51,-3862903.98" speed="12.50"/>
        <lane disallow="tram rail_urban rail rail_electric rail_fast ship" id=":917521463_0_1" index="1" length="4.09" shape="573855.23,-3862906.03 573853.95,-3862906.56 573853.06,-3862906.87 573852.13,-3862907.04 573850.76,-3862907.17" speed="12.50"/>
    </edge>
    <edge function="internal" id=":917521463_2">
        <lane disallow="tram rail_urban rail rail_electric rail_fast ship" id=":917521463_2_0" index="0" length="5.38" shape="573851.27,-3862913.55 573852.72,-3862913.42 573853.72,-3862913.34 573854.71,-3862913.41 573856.12,-3862913.69" speed="12.50"/>
        <lane disallow="tram rail_urban rail rail_electric rail_fast ship" id=":917521463_2_1" index="1" length="5.38" shape="573851.01,-3862910.36 573852.75,-3862910.21 573853.95,-3862910.14 573855.13,-3862910.23 573856.83,-3862910.57" speed="12.50"/>
    </edge>
    <edge function="internal" id=":917543762_0">
        <lane disallow="tram rail_urban rail rail_electric rail_fast ship" id=":917543762_0_0" index="0" length="9.03" shape="573929.52,-3862897.49 573927.05,-3862897.35 573925.22,-3862896.44 573924.03,-3862894.78 573923.49,-3862892.36" speed="6.50"/>
    </edge>
    <edge function="internal" id=":917543762_1">
        <lane disallow="tram rail_urban rail rail_electric rail_fast ship" id=":917543762_1_0" index="0" length="11.17" shape="573929.52,-3862897.49 573918.38,-3862898.47" speed="12.50"/>
        <lane disallow="tram rail_urban rail rail_electric rail_fast ship" id=":917543762_1_1" index="1" length="11.17" shape="573929.78,-3862900.68 573918.67,-3862901.65" speed="12.50"/>
    </edge>
    <edge function="internal" id=":917543762_3">
        <lane disallow="tram rail_urban rail rail_electric rail_fast ship" id=":917543762_3_0" index="0" length="11.10" shape="573919.26,-3862908.03 573930.31,-3862907.06" speed="12.50"/>
        <lane disallow="tram rail_urban rail rail_electric rail_fast ship" id=":917543762_3_1" index="1" length="11.10" shape="573918.97,-3862904.84 573930.04,-3862903.87" speed="12.50"/>
    </edge>
    <edge function="internal" id=":917545752_0">
        <lane disallow="tram rail_urban rail rail_electric rail_fast ship" id=":917545752_0_0" index="0" length="14.41" shape="573975.04,-3862788.51 573960.68,-3862789.63" speed="12.50"/>
        <lane disallow="tram rail_urban rail rail_electric rail_fast ship" id=":917545752_0_1" index="1" length="14.41" shape="573975.29,-3862791.70 573960.93,-3862792.82" speed="12.50"/>
    </edge>
    <edge function="internal" id=":917545752_2">
        <lane disallow="tram rail_urban rail rail_electric rail_fast ship" id=":917545752_2_0" index="0" length="11.73" shape="573975.29,-3862791.70 573971.47,-3862792.35 573968.81,-3862793.61 573967.31,-3862795.49 573966.96,-3862797.98" speed="7.32"/>
        <lane disallow="tram rail_urban rail rail_electric rail_fast ship" id=":917545752_2_1" index="1" length="9.03" shape="573975.29,-3862791.70 573972.87,-3862792.24 573971.21,-3862793.42 573970.30,-3862795.25 573970.15,-3862797.72" speed="6.50"/>
    </edge>
    <edge function="internal" id=":917560069_0">
        <lane disallow="tram rail_urban rail rail_electric rail_fast ship" id=":917560069_0_0" index="0" length="15.68" shape="573672.67,-3862917.90 573669.98,-3862918.91 573668.20,-3862921.44 573667.33,-3862925.49 573667.37,-3862931.06" speed="8.38"/>
        <lane disallow="tram rail_urban rail rail_electric rail_fast ship" id=":917560069_0_1" index="1" length="10.70" shape="573672.92,-3862921.09 573671.61,-3862921.79 573670.78,-3862923.64 573670.43,-3862926.65 573670.56,-3862930.81" speed="7.03"/>
    </edge>
    <edge function="internal" id=":917560069_2">
        <lane disallow="tram rail_urban rail rail_electric rail_fast ship" id=":917560069_2_0" index="0" length="15.80" shape="573666.15,-3862915.30 573667.37,-3862931.06" speed="12.50"/>
        <lane disallow="tram rail_urban rail rail_electric rail_fast ship" id=":917560069_2_1" index="1" length="15.80" shape="573669.34,-3862915.05 573670.56,-3862930.81" speed="12.50"/>
    </edge>
    <edge function="internal" id=":917560069_4">
        <lane disallow="tram rail_urban rail rail_electric rail_fast ship" id=":917560069_4_0" index="0" length="13.72" shape="573669.34,-3862915.05 573669.96,-3862920.58 573670.85,-3862924.49 573672.01,-3862926.79 573673.43,-3862927.47" speed="7.87"/>
        <lane disallow="tram rail_urban rail rail_electric rail_fast ship" id=":917560069_4_1" index="1" length="10.70" shape="573669.34,-3862915.05 573669.85,-3862919.18 573670.66,-3862922.10 573671.77,-3862923.80 573673.18,-3862924.28" speed="7.02"/>
    </edge>
    <edge function="internal" id=":917569732_0">
        <lane disallow="tram rail_urban rail rail_electric rail_fast ship" id=":917569732_0_0" index="0" length="8.96" shape="573875.22,-3862854.70 573872.78,-3862854.52 573870.98,-3862853.60 573869.80,-3862851.94 573869.26,-3862849.54" speed="6.52"/>
        <lane disallow="tram rail_urban rail rail_electric rail_fast ship" id=":917569732_0_1" index="1" length="11.63" shape="573875.22,-3862854.70 573871.39,-3862854.62 573868.58,-3862853.77 573866.81,-3862852.17 573866.07,-3862849.80" speed="7.34"/>
    </edge>
    <edge function="internal" id=":917569732_2">
        <lane disallow="tram rail_urban rail rail_electric rail_fast ship" id=":917569732_2_0" index="0" length="14.25" shape="573875.22,-3862854.70 573861.01,-3862855.80" speed="12.50"/>
    </edge>
    <edge function="internal" id=":917572664_0">
        <lane disallow="tram rail_urban rail rail_electric rail_fast ship" id=":917572664_0_0" index="0" length="9.04" shape="573794.18,-3863121.71 573791.70,-3863121.54 573789.87,-3863120.63 573788.69,-3863118.97 573788.15,-3863116.55" speed="6.51"/>
    </edge>
    <edge function="internal" id=":917572664_1">
        <lane disallow="tram rail_urban rail rail_electric rail_fast ship" id=":917572664_1_0" index="0" length="14.41" shape="573794.18,-3863121.71 573779.81,-3863122.80" speed="12.50"/>
        <lane disallow="tram rail_urban rail rail_electric rail_fast ship" id=":917572664_1_1" index="1" length="14.41" shape="573794.42,-3863124.90 573780.05,-3863125.99" speed="12.50"/>
    </edge>
    <edge function="internal" id=":917572664_3">
        <lane disallow="tram rail_urban rail rail_electric rail_fast ship" id=":917572664_3_0" index="0" length="14.41" shape="573789.28,-3863130.91 573788.15,-3863116.55" speed="12.50"/>
        <lane disallow="tram rail_urban rail rail_electric rail_fast ship" id=":917572664_3_1" index="1" length="14.41" shape="573786.09,-3863131.16 573784.96,-3863116.80" speed="12.50"/>
    </edge>
    <edge function="internal" id=":917572664_5">