<?xml version="1.0" encoding="UTF-8" standalone="no"?><!-- generated on 2023-12-29 01:07:10 by Eclipse SUMO netedit Version 1.19.0
<configuration xmlns:xsi="http://www.w3.org/2001/XMLSchema-instance" xsi:noNamespaceSchemaLocation="http://sumo.dlr.de/xsd/neteditConfiguration.xsd">

    <input>
        <sumo-net-file value="C:\Users\PC\OneDrive\Imágenes\Escritorio\Sincronizacion-de-semaforos-main\instancia1.net.xml"/>
    </input>

    <output>
        <output-file value="C:\Users\PC\OneDrive\Imágenes\Escritorio\Sincronizacion-de-semaforos-main\instancia1.net.xml"/>
    </output>

    <processing>
        <geometry.min-radius.fix.railways value="false"/>
        <geometry.max-grade.fix value="false"/>
        <offset.disable-normalization value="true"/>
        <lefthand value="0"/>
    </processing>

    <junctions>
        <no-turnarounds value="true"/>
        <junctions.corner-detail value="5"/>
        <junctions.limit-turn-speed value="5.50"/>
        <rectangular-lane-cut value="0"/>
    </junctions>

    <pedestrian>
        <walkingareas value="0"/>
    </pedestrian>

</configuration>
--><net xmlns:xsi="http://www.w3.org/2001/XMLSchema-instance" junctionCornerDetail="5" limitTurnSpeed="5.50" version="1.16" xsi:noNamespaceSchemaLocation="http://sumo.dlr.de/xsd/net_file.xsd">

    <location convBoundary="573216.00,-3862746.26,573854.47,-3862384.60" netOffset="0.00,0.00" origBoundary="-56.199827,-34.909212,-56.184937,-34.898649" projParameter="+proj=utm +zone=21 +ellps=WGS84 +datum=WGS84 +units=m +no_defs"/>

    <type disallow="tram rail_urban rail rail_electric rail_fast ship" id="highway.residential" numLanes="1" oneway="0" priority="3" speed="13.89"/>
    <type disallow="tram rail_urban rail rail_electric rail_fast ship" id="highway.secondary" numLanes="1" oneway="0" priority="11" speed="27.78"/>
    <type disallow="tram rail_urban rail rail_electric rail_fast ship" id="highway.tertiary" numLanes="1" oneway="0" priority="10" speed="22.22"/>

    <edge function="internal" id=":1862170252_0">
        <lane disallow="tram rail_urban rail rail_electric rail_fast ship" id=":1862170252_0_0" index="0" length="20.61" shape="573745.88,-3862512.62 573737.75,-3862531.81" speed="12.50"/>
        <lane disallow="tram rail_urban rail rail_electric rail_fast ship" id=":1862170252_0_1" index="1" length="20.61" shape="573748.82,-3862513.89 573740.77,-3862532.86" speed="12.50"/>
        <lane disallow="tram rail_urban rail rail_electric rail_fast ship" id=":1862170252_0_2" index="2" length="20.61" shape="573751.76,-3862515.15 573743.80,-3862533.91" speed="12.50"/>
    </edge>
    <edge function="internal" id=":1862170252_3">
        <lane disallow="tram rail_urban rail rail_electric rail_fast ship" id=":1862170252_3_0" index="0" length="20.66" shape="573737.67,-3862512.15 573738.54,-3862518.05 573739.28,-3862522.17 573739.24,-3862526.20 573737.75,-3862531.81" speed="12.50"/>
        <lane disallow="tram rail_urban rail rail_electric rail_fast ship" id=":1862170252_3_1" index="1" length="20.66" shape="573740.85,-3862511.84 573741.73,-3862517.93 573742.47,-3862522.36 573742.38,-3862526.79 573740.77,-3862532.86" speed="12.50"/>
    </edge>
    <edge function="internal" id=":1893981273_0">
        <lane disallow="tram rail_urban rail rail_electric rail_fast ship" id=":1893981273_0_0" index="0" length="15.42" shape="573824.28,-3862383.56 573809.09,-3862386.22" speed="12.50"/>
    </edge>
    <edge function="internal" id=":1893981273_1">
        <lane disallow="tram rail_urban rail rail_electric rail_fast ship" id=":1893981273_1_0" index="0" length="14.65" shape="573816.46,-3862394.60 573817.44,-3862390.75 573816.54,-3862388.07 573813.76,-3862386.56 573809.09,-3862386.22" speed="7.08"/>
    </edge>
    <edge function="internal" id=":1893981274_0">
        <lane disallow="tram rail_urban rail rail_electric rail_fast ship" id=":1893981274_0_0" index="0" length="17.01" shape="573808.89,-3862386.23 573791.92,-3862387.44" speed="12.50"/>
    </edge>
    <edge function="internal" id=":1893981274_1">
        <lane disallow="tram rail_urban rail rail_electric rail_fast ship" id=":1893981274_1_0" index="0" length="15.56" shape="573808.89,-3862386.23 573803.64,-3862386.77 573799.58,-3862387.87 573796.73,-3862389.54 573795.08,-3862391.76" speed="10.15"/>
        <lane disallow="tram rail_urban rail rail_electric rail_fast ship" id=":1893981274_1_1" index="1" length="13.56" shape="573808.89,-3862386.23 573805.15,-3862386.79 573802.09,-3862388.10 573799.72,-3862390.17 573798.03,-3862393.00" speed="9.51"/>
        <lane disallow="tram rail_urban rail rail_electric rail_fast ship" id=":1893981274_1_2" index="2" length="11.83" shape="573808.89,-3862386.23 573806.66,-3862386.80 573804.60,-3862388.33 573802.70,-3862390.81 573800.98,-3862394.24" speed="8.91"/>
        <lane disallow="tram rail_urban rail rail_electric rail_fast ship" id=":1893981274_1_3" index="3" length="10.59" shape="573808.89,-3862386.23 573808.17,-3862386.82 573807.10,-3862388.57 573805.69,-3862391.45 573803.93,-3862395.48" speed="8.46"/>
    </edge>
    <edge function="internal" id=":1893981275_0">
        <lane disallow="tram rail_urban rail rail_electric rail_fast ship" id=":1893981275_0_0" index="0" length="13.67" shape="573769.70,-3862502.89 573771.53,-3862499.48 573773.80,-3862496.96 573776.52,-3862495.35 573779.69,-3862494.64" speed="9.70"/>
    </edge>
    <edge function="internal" id=":1893981275_1">
        <lane disallow="tram rail_urban rail rail_electric rail_fast ship" id=":1893981275_1_0" index="0" length="17.14" shape="573769.70,-3862502.89 573776.38,-3862487.15" speed="12.50"/>
        <lane disallow="tram rail_urban rail rail_electric rail_fast ship" id=":1893981275_1_1" index="1" length="17.14" shape="573766.74,-3862501.66 573773.44,-3862485.88" speed="12.50"/>
        <lane disallow="tram rail_urban rail rail_electric rail_fast ship" id=":1893981275_1_2" index="2" length="17.14" shape="573763.79,-3862500.43 573770.50,-3862484.61" speed="12.50"/>
    </edge>
    <edge function="internal" id=":1893981275_4">
        <lane disallow="tram rail_urban rail rail_electric rail_fast ship" id=":1893981275_4_0" index="0" length="14.32" shape="573765.42,-3862495.77 573779.69,-3862494.64" speed="12.50"/>
        <lane disallow="tram rail_urban rail rail_electric rail_fast ship" id=":1893981275_4_1" index="1" length="14.32" shape="573765.15,-3862492.58 573779.44,-3862491.45" speed="12.50"/>
    </edge>
    <edge function="internal" id=":1893981275_6">
        <lane disallow="tram rail_urban rail rail_electric rail_fast ship" id=":1893981275_6_0" index="0" length="11.22" shape="573765.15,-3862492.58 573767.77,-3862491.99 573770.02,-3862490.67 573771.91,-3862488.64 573773.44,-3862485.88" speed="8.94"/>
        <lane disallow="tram rail_urban rail rail_electric rail_fast ship" id=":1893981275_6_1" index="1" length="9.81" shape="573765.15,-3862492.58 573766.22,-3862492.02 573767.48,-3862490.51 573768.90,-3862488.04 573770.50,-3862484.61" speed="8.39"/>
    </edge>
    <edge function="internal" id=":1893981276_0">
        <lane disallow="tram rail_urban rail rail_electric rail_fast ship" id=":1893981276_0_0" index="0" length="21.19" shape="573756.79,-3862482.92 573750.02,-3862502.97" speed="12.50"/>
        <lane disallow="tram rail_urban rail rail_electric rail_fast ship" id=":1893981276_0_1" index="1" length="21.19" shape="573759.74,-3862484.15 573752.96,-3862504.23" speed="12.50"/>
        <lane disallow="tram rail_urban rail rail_electric rail_fast ship" id=":1893981276_0_2" index="2" length="21.19" shape="573762.70,-3862485.39 573755.90,-3862505.49" speed="12.50"/>
    </edge>
    <edge function="internal" id=":1893981276_3">
        <lane disallow="tram rail_urban rail rail_electric rail_fast ship" id=":1893981276_3_0" index="0" length="9.21" shape="573746.01,-3862497.40 573748.75,-3862497.54 573750.33,-3862498.51 573750.76,-3862500.32 573750.02,-3862502.97" speed="5.71"/>
    </edge>
    <edge function="internal" id=":1893981276_4">
        <lane disallow="tram rail_urban rail rail_electric rail_fast ship" id=":1893981276_4_0" index="0" length="19.28" shape="573746.01,-3862497.40 573765.22,-3862495.79" speed="12.50"/>
        <lane disallow="tram rail_urban rail rail_electric rail_fast ship" id=":1893981276_4_1" index="1" length="19.28" shape="573745.74,-3862494.22 573764.95,-3862492.60" speed="12.50"/>
    </edge>
    <edge function="internal" id=":1894788773_0">
        <lane disallow="tram rail_urban rail rail_electric rail_fast ship" id=":1894788773_0_0" index="0" length="9.03" shape="573731.01,-3862498.65 573733.48,-3862498.80 573735.31,-3862499.71 573736.48,-3862501.37 573737.01,-3862503.79" speed="6.49"/>
    </edge>
    <edge function="internal" id=":1894788773_1">
        <lane disallow="tram rail_urban rail rail_electric rail_fast ship" id=":1894788773_1_0" index="0" length="14.46" shape="573731.01,-3862498.65 573745.42,-3862497.45" speed="12.50"/>
        <lane disallow="tram rail_urban rail rail_electric rail_fast ship" id=":1894788773_1_1" index="1" length="14.46" shape="573730.75,-3862495.46 573745.15,-3862494.27" speed="12.50"/>
    </edge>
    <edge function="internal" id=":1894788773_3">
        <lane disallow="tram rail_urban rail rail_electric rail_fast ship" id=":1894788773_3_0" index="0" length="14.46" shape="573735.95,-3862489.37 573737.01,-3862503.79" speed="12.50"/>
        <lane disallow="tram rail_urban rail rail_electric rail_fast ship" id=":1894788773_3_1" index="1" length="14.46" shape="573739.14,-3862489.14 573740.20,-3862503.56" speed="12.50"/>
    </edge>
    <edge function="internal" id=":1894788773_5">
        <lane disallow="tram rail_urban rail rail_electric rail_fast ship" id=":1894788773_5_0" index="0" length="9.03" shape="573739.14,-3862489.14 573739.67,-3862491.56 573740.85,-3862493.22 573742.68,-3862494.12 573745.15,-3862494.27" speed="6.48"/>
    </edge>
    <edge function="internal" id=":1897577710_0">
        <lane disallow="tram rail_urban rail rail_electric rail_fast ship" id=":1897577710_0_0" index="0" length="9.03" shape="573637.57,-3862511.79 573637.72,-3862509.32 573638.63,-3862507.49 573640.29,-3862506.30 573642.70,-3862505.76" speed="6.51"/>
    </edge>
    <edge function="internal" id=":1897577710_1">
        <lane disallow="tram rail_urban rail rail_electric rail_fast ship" id=":1897577710_1_0" index="0" length="14.40" shape="573637.57,-3862511.79 573636.40,-3862497.43" speed="12.50"/>
    </edge>
    <edge function="internal" id=":1897577710_2">
        <lane disallow="tram rail_urban rail rail_electric rail_fast ship" id=":1897577710_2_0" index="0" length="11.21" shape="573631.53,-3862506.66 573642.70,-3862505.76" speed="12.50"/>
        <lane disallow="tram rail_urban rail rail_electric rail_fast ship" id=":1897577710_2_1" index="1" length="11.21" shape="573631.28,-3862503.47 573642.45,-3862502.57" speed="12.50"/>
    </edge>
    <edge function="internal" id=":1897577710_4">
        <lane disallow="tram rail_urban rail rail_electric rail_fast ship" id=":1897577710_4_0" index="0" length="9.03" shape="573631.28,-3862503.47 573633.69,-3862502.92 573635.35,-3862501.73 573636.25,-3862499.90 573636.40,-3862497.43" speed="6.51"/>
    </edge>
    <edge function="internal" id=":1897577711_0">
        <lane disallow="tram rail_urban rail rail_electric rail_fast ship" id=":1897577711_0_0" index="0" length="9.03" shape="573525.63,-3862515.12 573528.10,-3862515.30 573529.93,-3862516.22 573531.11,-3862517.88 573531.65,-3862520.29" speed="6.53"/>
    </edge>
    <edge function="internal" id=":1897577711_1">
        <lane disallow="tram rail_urban rail rail_electric rail_fast ship" id=":1897577711_1_0" index="0" length="14.37" shape="573525.63,-3862515.12 573539.98,-3862514.05" speed="12.50"/>
        <lane disallow="tram rail_urban rail rail_electric rail_fast ship" id=":1897577711_1_1" index="1" length="14.37" shape="573525.41,-3862511.93 573539.72,-3862510.86" speed="12.50"/>
    </edge>
    <edge function="internal" id=":1897577711_3">
        <lane disallow="tram rail_urban rail rail_electric rail_fast ship" id=":1897577711_3_0" index="0" length="14.35" shape="573530.55,-3862505.98 573531.65,-3862520.29" speed="12.50"/>
        <lane disallow="tram rail_urban rail rail_electric rail_fast ship" id=":1897577711_3_1" index="1" length="14.35" shape="573533.74,-3862505.74 573534.84,-3862520.04" speed="12.50"/>
    </edge>
    <edge function="internal" id=":1897577711_5">
        <lane disallow="tram rail_urban rail rail_electric rail_fast ship" id=":1897577711_5_0" index="0" length="8.98" shape="573533.74,-3862505.74 573534.27,-3862508.15 573535.45,-3862509.80 573537.26,-3862510.71 573539.72,-3862510.86" speed="6.48"/>
    </edge>
    <edge function="internal" id=":1897577712_0">
        <lane disallow="tram rail_urban rail rail_electric rail_fast ship" id=":1897577712_0_0" index="0" length="9.03" shape="573430.60,-3862527.31 573430.77,-3862524.84 573431.69,-3862523.02 573433.36,-3862521.85 573435.78,-3862521.33" speed="6.49"/>
    </edge>
    <edge function="internal" id=":1897577712_1">
        <lane disallow="tram rail_urban rail rail_electric rail_fast ship" id=":1897577712_1_0" index="0" length="14.40" shape="573430.60,-3862527.31 573429.51,-3862512.95" speed="12.50"/>
    </edge>
    <edge function="internal" id=":1897577712_2">
        <lane disallow="tram rail_urban rail rail_electric rail_fast ship" id=":1897577712_2_0" index="0" length="11.24" shape="573424.59,-3862522.18 573435.78,-3862521.33" speed="12.50"/>
        <lane disallow="tram rail_urban rail rail_electric rail_fast ship" id=":1897577712_2_1" index="1" length="11.24" shape="573424.32,-3862518.99 573435.56,-3862518.14" speed="12.50"/>
    </edge>
    <edge function="internal" id=":1897577712_4">
        <lane disallow="tram rail_urban rail rail_electric rail_fast ship" id=":1897577712_4_0" index="0" length="9.07" shape="573424.32,-3862518.99 573426.75,-3862518.44 573428.43,-3862517.25 573429.35,-3862515.42 573429.51,-3862512.95" speed="6.53"/>
    </edge>
    <edge function="internal" id=":1897577713_0">
        <lane disallow="tram rail_urban rail rail_electric rail_fast ship" id=":1897577713_0_0" index="0" length="9.01" shape="573321.19,-3862530.73 573323.65,-3862530.90 573325.48,-3862531.81 573326.67,-3862533.46 573327.22,-3862535.86" speed="6.53"/>
    </edge>
    <edge function="internal" id=":1897577713_1">
        <lane disallow="tram rail_urban rail rail_electric rail_fast ship" id=":1897577713_1_0" index="0" length="11.14" shape="573321.19,-3862530.73 573332.32,-3862529.86" speed="12.50"/>
        <lane disallow="tram rail_urban rail rail_electric rail_fast ship" id=":1897577713_1_1" index="1" length="11.14" shape="573320.96,-3862527.54 573332.05,-3862526.67" speed="12.50"/>
    </edge>
    <edge function="internal" id=":1897577713_3">
        <lane disallow="tram rail_urban rail rail_electric rail_fast ship" id=":1897577713_3_0" index="0" length="14.32" shape="573326.09,-3862521.58 573327.22,-3862535.86" speed="12.50"/>
    </edge>
    <edge function="internal" id=":1897577713_4">
        <lane disallow="tram rail_urban rail rail_electric rail_fast ship" id=":1897577713_4_0" index="0" length="8.96" shape="573326.09,-3862521.58 573326.62,-3862523.98 573327.79,-3862525.63 573329.60,-3862526.53 573332.05,-3862526.67" speed="6.46"/>
    </edge>
    <edge function="internal" id=":1897577714_0">
        <lane disallow="tram rail_urban rail rail_electric rail_fast ship" id=":1897577714_0_0" index="0" length="9.03" shape="573225.50,-3862543.32 573225.65,-3862540.85 573226.56,-3862539.02 573228.23,-3862537.85 573230.65,-3862537.32" speed="6.49"/>
        <lane disallow="tram rail_urban rail rail_electric rail_fast ship" id=":1897577714_0_1" index="1" length="11.74" shape="573225.50,-3862543.32 573225.54,-3862539.45 573226.38,-3862536.63 573228.01,-3862534.85 573230.42,-3862534.13" speed="7.31"/>
    </edge>
    <edge function="internal" id=":1897577714_2">
        <lane disallow="tram rail_urban rail rail_electric rail_fast ship" id=":1897577714_2_0" index="0" length="14.38" shape="573225.50,-3862543.32 573224.28,-3862528.99" speed="12.50"/>
    </edge>
    <edge function="internal" id=":917314587_0">
        <lane disallow="tram rail_urban rail rail_electric rail_fast ship" id=":917314587_0_0" index="0" length="7.85" shape="573832.09,-3862387.74 573831.62,-3862385.63 573830.60,-3862384.19 573829.00,-3862383.42 573826.85,-3862383.32" speed="6.07"/>
        <lane disallow="tram rail_urban rail rail_electric rail_fast ship" id=":917314587_0_1" index="1" length="2.62" shape="573828.90,-3862387.97 573828.74,-3862387.27 573828.40,-3862386.79 573827.87,-3862386.54 573827.15,-3862386.50" speed="3.90"/>
    </edge>
    <edge function="internal" id=":917373361_0">
        <lane disallow="tram rail_urban rail rail_electric rail_fast ship" id=":917373361_0_0" index="0" length="11.21" shape="573427.93,-3862419.29 573416.76,-3862420.30" speed="12.50"/>
    </edge>
    <edge function="internal" id=":917373361_1">
        <lane disallow="tram rail_urban rail rail_electric rail_fast ship" id=":917373361_1_0" index="0" length="9.03" shape="573422.79,-3862425.38 573422.25,-3862422.96 573421.07,-3862421.31 573419.23,-3862420.42 573416.76,-3862420.30" speed="6.47"/>
    </edge>
    <edge function="internal" id=":917414594_0">
        <lane disallow="tram rail_urban rail rail_electric rail_fast ship" id=":917414594_0_0" index="0" length="26.08" shape="573674.01,-3862699.45 573672.81,-3862706.51 573675.05,-3862711.54 573680.20,-3862714.36 573687.74,-3862714.81" speed="9.24"/>
        <lane disallow="tram rail_urban rail rail_electric rail_fast ship" id=":917414594_0_1" index="1" length="20.02" shape="573676.99,-3862700.61 573675.84,-3862705.96 573677.20,-3862709.58 573681.07,-3862711.47 573687.44,-3862711.63" speed="8.16"/>
        <lane disallow="tram rail_urban rail rail_electric rail_fast ship" id=":917414594_0_2" index="2" length="12.84" shape="573679.98,-3862701.76 573679.32,-3862705.04 573680.30,-3862707.24 573682.91,-3862708.38 573687.15,-3862708.44" speed="6.66"/>
    </edge>
    <edge function="internal" id=":917414594_3">
        <lane disallow="tram rail_urban rail rail_electric rail_fast ship" id=":917414594_3_0" index="0" length="22.38" shape="573665.31,-3862716.57 573687.74,-3862714.81" speed="12.50"/>
        <lane disallow="tram rail_urban rail rail_electric rail_fast ship" id=":917414594_3_1" index="1" length="22.38" shape="573665.13,-3862713.38 573687.44,-3862711.63" speed="12.50"/>
        <lane disallow="tram rail_urban rail rail_electric rail_fast ship" id=":917414594_3_2" index="2" length="22.38" shape="573664.95,-3862710.18 573687.15,-3862708.44" speed="12.50"/>
    </edge>
    <edge function="internal" id=":917418776_0">
        <lane disallow="tram rail_urban rail rail_electric rail_fast ship" id=":917418776_0_0" index="0" length="9.07" shape="573650.85,-3862605.31 573648.36,-3862605.14 573646.52,-3862604.23 573645.33,-3862602.56 573644.78,-3862600.16" speed="6.54"/>
    </edge>
    <edge function="internal" id=":917418776_1">
        <lane disallow="tram rail_urban rail rail_electric rail_fast ship" id=":917418776_1_0" index="0" length="11.22" shape="573650.85,-3862605.31 573639.66,-3862606.12" speed="12.50"/>
        <lane disallow="tram rail_urban rail rail_electric rail_fast ship" id=":917418776_1_1" index="1" length="11.22" shape="573651.08,-3862608.50 573639.89,-3862609.31" speed="12.50"/>
        <lane disallow="tram rail_urban rail rail_electric rail_fast ship" id=":917418776_1_2" index="2" length="11.22" shape="573651.32,-3862611.69 573640.11,-3862612.50" speed="12.50"/>
    </edge>
    <edge function="internal" id=":917418776_4">
        <lane disallow="tram rail_urban rail rail_electric rail_fast ship" id=":917418776_4_0" index="0" length="17.56" shape="573646.20,-3862617.66 573644.78,-3862600.16" speed="12.50"/>
    </edge>
    <edge function="internal" id=":917418776_5">
        <lane disallow="tram rail_urban rail rail_electric rail_fast ship" id=":917418776_5_0" index="0" length="11.75" shape="573646.20,-3862617.66 573645.54,-3862613.86 573644.27,-3862611.20 573642.38,-3862609.68 573639.89,-3862609.31" speed="7.36"/>
        <lane disallow="tram rail_urban rail rail_electric rail_fast ship" id=":917418776_5_1" index="1" length="9.08" shape="573646.20,-3862617.66 573645.65,-3862615.25 573644.45,-3862613.59 573642.61,-3862612.67 573640.11,-3862612.50" speed="6.55"/>
    </edge>
    <edge function="internal" id=":917429080_0">
        <lane disallow="tram rail_urban rail rail_electric rail_fast ship" id=":917429080_0_0" index="0" length="14.05" shape="573847.42,-3862697.58 573851.16,-3862696.72 573853.75,-3862694.87 573855.18,-3862692.03 573855.46,-3862688.20" speed="8.00"/>
        <lane disallow="tram rail_urban rail rail_electric rail_fast ship" id=":917429080_0_1" index="1" length="8.94" shape="573847.15,-3862694.40 573849.53,-3862693.85 573851.18,-3862692.67 573852.09,-3862690.86 573852.26,-3862688.42" speed="6.51"/>
    </edge>
    <edge function="internal" id=":917448117_0">
        <lane disallow="tram rail_urban rail rail_electric rail_fast ship" id=":917448117_0_0" index="0" length="11.22" shape="573340.78,-3862629.89 573329.60,-3862630.78" speed="12.50"/>
        <lane disallow="tram rail_urban rail rail_electric rail_fast ship" id=":917448117_0_1" index="1" length="11.22" shape="573341.04,-3862633.08 573329.85,-3862633.97" speed="12.50"/>
        <lane disallow="tram rail_urban rail rail_electric rail_fast ship" id=":917448117_0_2" index="2" length="11.22" shape="573341.30,-3862636.26 573330.10,-3862637.16" speed="12.50"/>
    </edge>
    <edge function="internal" id=":917448117_3">
        <lane disallow="tram rail_urban rail rail_electric rail_fast ship" id=":917448117_3_0" index="0" length="9.03" shape="573341.30,-3862636.26 573338.89,-3862636.81 573337.23,-3862638.00 573336.32,-3862639.83 573336.17,-3862642.30" speed="6.51"/>
    </edge>
    <edge function="internal" id=":917448117_4">
        <lane disallow="tram rail_urban rail rail_electric rail_fast ship" id=":917448117_4_0" index="0" length="9.03" shape="573334.72,-3862624.75 573334.58,-3862627.22 573333.68,-3862629.05 573332.02,-3862630.24 573329.60,-3862630.78" speed="6.50"/>
    </edge>
    <edge function="internal" id=":917448117_5">
        <lane disallow="tram rail_urban rail rail_electric rail_fast ship" id=":917448117_5_0" index="0" length="17.61" shape="573334.72,-3862624.75 573336.17,-3862642.30" speed="12.50"/>
    </edge>
    <edge function="internal" id=":917448816_0">
        <lane disallow="tram rail_urban rail rail_electric rail_fast ship" id=":917448816_0_0" index="0" length="14.30" shape="573532.04,-3862410.37 573517.79,-3862411.61" speed="12.50"/>
    </edge>
    <edge function="internal" id=":917448816_1">
        <lane disallow="tram rail_urban rail rail_electric rail_fast ship" id=":917448816_1_0" index="0" length="11.68" shape="573532.04,-3862410.37 573528.26,-3862411.06 573525.62,-3862412.34 573524.12,-3862414.21 573523.76,-3862416.69" speed="7.34"/>
        <lane disallow="tram rail_urban rail rail_electric rail_fast ship" id=":917448816_1_1" index="1" length="9.01" shape="573532.04,-3862410.37 573529.65,-3862410.94 573528.01,-3862412.14 573527.11,-3862413.97 573526.95,-3862416.45" speed="6.53"/>
    </edge>
    <edge function="internal" id=":917473596_0">
        <lane disallow="tram rail_urban rail rail_electric rail_fast ship" id=":917473596_0_0" index="0" length="11.27" shape="573338.60,-3862742.27 573349.87,-3862741.36" speed="12.50"/>
        <lane disallow="tram rail_urban rail rail_electric rail_fast ship" id=":917473596_0_1" index="1" length="11.27" shape="573338.36,-3862739.08 573349.59,-3862738.17" speed="12.50"/>
        <lane disallow="tram rail_urban rail rail_electric rail_fast ship" id=":917473596_0_2" index="2" length="11.27" shape="573338.13,-3862735.88 573349.31,-3862734.98" speed="12.50"/>
    </edge>
    <edge function="internal" id=":917473596_3">
        <lane disallow="tram rail_urban rail rail_electric rail_fast ship" id=":917473596_3_0" index="0" length="11.74" shape="573343.27,-3862729.88 573343.93,-3862733.69 573345.20,-3862736.34 573347.09,-3862737.83 573349.59,-3862738.17" speed="7.31"/>
        <lane disallow="tram rail_urban rail rail_electric rail_fast ship" id=":917473596_3_1" index="1" length="9.03" shape="573343.27,-3862729.88 573343.82,-3862732.29 573345.01,-3862733.95 573346.84,-3862734.84 573349.31,-3862734.98" speed="6.49"/>
    </edge>
    <edge function="internal" id=":917488873_0">
        <lane disallow="tram rail_urban rail rail_electric rail_fast ship" id=":917488873_0_0" index="0" length="17.65" shape="573849.41,-3862602.19 573848.01,-3862584.56" speed="12.50"/>
        <lane disallow="tram rail_urban rail rail_electric rail_fast ship" id=":917488873_0_1" index="1" length="17.65" shape="573846.21,-3862602.41 573844.83,-3862584.84" speed="12.50"/>
    </edge>
    <edge function="internal" id=":917488873_2">
        <lane disallow="tram rail_urban rail rail_electric rail_fast ship" id=":917488873_2_0" index="0" length="14.60" shape="573846.21,-3862602.41 573845.49,-3862597.20 573844.17,-3862593.54 573842.24,-3862591.43 573839.72,-3862590.87" speed="8.09"/>
        <lane disallow="tram rail_urban rail rail_electric rail_fast ship" id=":917488873_2_1" index="1" length="11.75" shape="573846.21,-3862602.41 573845.59,-3862598.60 573844.34,-3862595.93 573842.47,-3862594.42 573839.96,-3862594.06" speed="7.31"/>
        <lane disallow="tram rail_urban rail rail_electric rail_fast ship" id=":917488873_2_2" index="2" length="9.04" shape="573846.21,-3862602.41 573845.69,-3862599.99 573844.52,-3862598.32 573842.69,-3862597.41 573840.21,-3862597.25" speed="6.49"/>
    </edge>
    <edge function="internal" id=":917490607_0">
        <lane disallow="tram rail_urban rail rail_electric rail_fast ship" id=":917490607_0_0" index="0" length="14.45" shape="573542.15,-3862726.16 573556.59,-3862725.07" speed="12.50"/>
        <lane disallow="tram rail_urban rail rail_electric rail_fast ship" id=":917490607_0_1" index="1" length="14.45" shape="573541.92,-3862722.97 573556.33,-3862721.88" speed="12.50"/>
        <lane disallow="tram rail_urban rail rail_electric rail_fast ship" id=":917490607_0_2" index="2" length="14.45" shape="573541.70,-3862719.77 573556.07,-3862718.69" speed="12.50"/>
    </edge>
    <edge function="internal" id=":917490607_3">
        <lane disallow="tram rail_urban rail rail_electric rail_fast ship" id=":917490607_3_0" index="0" length="14.22" shape="573546.85,-3862713.78 573547.71,-3862717.59 573549.57,-3862720.21 573552.45,-3862721.64 573556.33,-3862721.88" speed="8.01"/>
        <lane disallow="tram rail_urban rail rail_electric rail_fast ship" id=":917490607_3_1" index="1" length="9.05" shape="573550.04,-3862713.53 573550.59,-3862715.96 573551.77,-3862717.63 573553.60,-3862718.54 573556.07,-3862718.69" speed="6.51"/>
    </edge>
    <edge function="internal" id=":917502656_0">
        <lane disallow="tram rail_urban rail rail_electric rail_fast ship" id=":917502656_0_0" index="0" length="11.03" shape="573324.71,-3862428.99 573313.72,-3862429.99" speed="12.50"/>
    </edge>
    <edge function="internal" id=":917502656_1">
        <lane disallow="tram rail_urban rail rail_electric rail_fast ship" id=":917502656_1_0" index="0" length="8.94" shape="573324.71,-3862428.99 573322.34,-3862429.57 573320.71,-3862430.76 573319.81,-3862432.59 573319.65,-3862435.04" speed="6.52"/>
    </edge>
    <edge function="internal" id=":917502796_0">
        <lane disallow="tram rail_urban rail rail_electric rail_fast ship" id=":917502796_0_0" index="0" length="15.81" shape="573716.34,-3862593.27 573714.59,-3862596.58 573711.94,-3862599.04 573708.37,-3862600.66 573703.91,-3862601.44" speed="10.05"/>
    </edge>
    <edge function="internal" id=":917502796_1">
        <lane disallow="tram rail_urban rail rail_electric rail_fast ship" id=":917502796_1_0" index="0" length="21.04" shape="573716.34,-3862593.27 573714.07,-3862599.03 573712.12,-3862602.81 573710.12,-3862606.57 573707.66,-3862612.26" speed="12.50"/>
        <lane disallow="tram rail_urban rail rail_electric rail_fast ship" id=":917502796_1_1" index="1" length="21.04" shape="573719.37,-3862594.32 573717.08,-3862600.11 573715.13,-3862603.91 573713.11,-3862607.69 573710.64,-3862613.41" speed="12.50"/>
        <lane disallow="tram rail_urban rail rail_electric rail_fast ship" id=":917502796_1_2" index="2" length="21.04" shape="573722.39,-3862595.38 573720.09,-3862601.19 573718.13,-3862605.01 573716.11,-3862608.81 573713.63,-3862614.56" speed="12.50"/>
        <lane disallow="tram rail_urban rail rail_electric rail_fast ship" id=":917502796_1_3" index="3" length="21.04" shape="573722.39,-3862595.38 573716.61,-3862615.71" speed="12.50"/>
    </edge>
    <edge function="internal" id=":917502796_5">
        <lane disallow="tram rail_urban rail rail_electric rail_fast ship" id=":917502796_5_0" index="0" length="21.97" shape="573725.78,-3862599.77 573703.91,-3862601.44" speed="12.50"/>
        <lane disallow="tram rail_urban rail rail_electric rail_fast ship" id=":917502796_5_1" index="1" length="21.97" shape="573726.04,-3862602.96 573704.14,-3862604.63" speed="12.50"/>
        <lane disallow="tram rail_urban rail rail_electric rail_fast ship" id=":917502796_5_2" index="2" length="21.97" shape="573726.30,-3862606.15 573704.37,-3862607.82" speed="12.50"/>
    </edge>
    <edge function="internal" id=":917502796_8">