<?xml version="1.0" encoding="UTF-8" standalone="no"?><!-- generated on 2023-12-29 01:17:22 by Eclipse SUMO netedit Version 1.19.0
<configuration xmlns:xsi="http://www.w3.org/2001/XMLSchema-instance" xsi:noNamespaceSchemaLocation="http://sumo.dlr.de/xsd/neteditConfiguration.xsd">

    <input>
        <sumo-net-file value="C:\Users\PC\OneDrive\Imágenes\Escritorio\Sincronizacion-de-semaforos-main\instancia2.net.xml"/>
    </input>

    <output>
        <output-file value="C:\Users\PC\OneDrive\Imágenes\Escritorio\Sincronizacion-de-semaforos-main\instancia2.net.xml"/>
    </output>

    <processing>
        <geometry.min-radius.fix.railways value="false"/>
        <geometry.max-grade.fix value="false"/>
        <offset.disable-normalization value="true"/>
        <lefthand value="0"/>
    </processing>

    <junctions>
        <no-turnarounds value="true"/>
        <junctions.corner-detail value="5"/>
        <junctions.limit-turn-speed value="5.50"/>
        <rectangular-lane-cut value="0"/>
    </junctions>

    <pedestrian>
        <walkingareas value="0"/>
    </pedestrian>

</configuration>
--><net xmlns:xsi="http://www.w3.org/2001/XMLSchema-instance" junctionCornerDetail="5" limitTurnSpeed="5.50" version="1.16" xsi:noNamespaceSchemaLocation="http://sumo.dlr.de/xsd/net_file.xsd">

    <location convBoundary="573257.40,-3863268.68,574131.94,-3862104.00" netOffset="0.00,0.00" origBoundary="-56.199827,-34.909212,-56.184937,-34.898649" projParameter="+proj=utm +zone=21 +ellps=WGS84 +datum=WGS84 +units=m +no_defs"/>

    <type allow="pedestrian" id="highway.footway" numLanes="1" oneway="1" priority="1" speed="2.78" width="2.00"/>
    <type allow="pedestrian" id="highway.pedestrian" numLanes="1" oneway="1" priority="1" speed="2.78" width="2.00"/>
    <type disallow="tram rail_urban rail rail_electric rail_fast ship" id="highway.residential" numLanes="1" oneway="0" priority="3" speed="13.89"/>
    <type disallow="tram rail_urban rail rail_electric rail_fast ship" id="highway.secondary" numLanes="1" oneway="0" priority="11" speed="27.78"/>
    <type allow="pedestrian" id="highway.steps" numLanes="1" oneway="1" priority="1" speed="1.39" width="2.00"/>
    <type disallow="tram rail_urban rail rail_electric rail_fast ship" id="highway.tertiary" numLanes="1" oneway="0" priority="10" speed="22.22"/>

    <edge function="internal" id=":11104911654_0">
        <lane disallow="tram rail_urban rail rail_electric rail_fast ship" id=":11104911654_0_0" index="0" length="5.00" shape="573364.11,-3863004.89 573364.56,-3863009.87" speed="12.50"/>
    </edge>
    <edge function="internal" id=":11104911656_0">
        <lane disallow="tram rail_urban rail rail_electric rail_fast ship" id=":11104911656_0_0" index="0" length="5.07" shape="573398.27,-3862939.77 573393.21,-3862940.18" speed="12.50"/>
        <lane disallow="tram rail_urban rail rail_electric rail_fast ship" id=":11104911656_0_1" index="1" length="5.07" shape="573398.52,-3862942.96 573393.48,-3862943.37" speed="12.50"/>
    </edge>
    <edge function="internal" id=":11104911656_2">
        <lane disallow="tram rail_urban rail rail_electric rail_fast ship" id=":11104911656_2_0" index="0" length="5.02" shape="573394.02,-3862949.75 573399.02,-3862949.34" speed="12.50"/>
        <lane disallow="tram rail_urban rail rail_electric rail_fast ship" id=":11104911656_2_1" index="1" length="5.02" shape="573393.75,-3862946.56 573398.77,-3862946.15" speed="12.50"/>
    </edge>
    <edge function="internal" id=":1893973264_0">
        <lane disallow="tram rail_urban rail rail_electric rail_fast ship" id=":1893973264_0_0" index="0" length="4.88" shape="573875.89,-3862897.34 573874.37,-3862897.37 573873.33,-3862897.46 573872.30,-3862897.62 573870.80,-3862897.87" speed="12.50"/>
        <lane disallow="tram rail_urban rail rail_electric rail_fast ship" id=":1893973264_0_1" index="1" length="4.88" shape="573875.91,-3862900.54 573874.53,-3862900.57 573873.59,-3862900.65 573872.66,-3862900.80 573871.30,-3862901.03" speed="12.50"/>
    </edge>
    <edge function="internal" id=":1893973274_0">
        <lane disallow="tram rail_urban rail rail_electric rail_fast ship" id=":1893973274_0_0" index="0" length="0.54" shape="573905.36,-3862899.67 573905.29,-3862899.68 573905.23,-3862899.68 573905.18,-3862899.68 573905.10,-3862899.68" speed="12.50"/>
        <lane disallow="tram rail_urban rail rail_electric rail_fast ship" id=":1893973274_0_1" index="1" length="0.54" shape="573905.66,-3862902.86 573905.42,-3862902.88 573905.26,-3862902.89 573905.09,-3862902.89 573904.85,-3862902.87" speed="12.50"/>
    </edge>
    <edge function="internal" id=":1893973274_2">
        <lane disallow="tram rail_urban rail rail_electric rail_fast ship" id=":1893973274_2_0" index="0" length="1.62" shape="573904.36,-3862909.31 573906.25,-3862909.23" speed="12.50"/>
        <lane disallow="tram rail_urban rail rail_electric rail_fast ship" id=":1893973274_2_1" index="1" length="1.62" shape="573904.61,-3862906.07 573905.01,-3862906.04 573905.28,-3862906.05 573905.56,-3862906.07 573905.96,-3862906.05" speed="12.50"/>
    </edge>
    <edge function="internal" id=":3244635508_0">
        <lane disallow="tram rail_urban rail rail_electric rail_fast ship" id=":3244635508_0_0" index="0" length="0.33" shape="573584.88,-3862924.93 573584.53,-3862924.96" speed="12.50"/>
        <lane disallow="tram rail_urban rail rail_electric rail_fast ship" id=":3244635508_0_1" index="1" length="0.33" shape="573585.14,-3862928.12 573584.83,-3862928.15" speed="12.50"/>
    </edge>
    <edge function="internal" id=":3244635508_2">
        <lane disallow="tram rail_urban rail rail_electric rail_fast ship" id=":3244635508_2_0" index="0" length="0.26" shape="573585.41,-3862934.52 573585.65,-3862934.50" speed="12.50"/>
        <lane disallow="tram rail_urban rail rail_electric rail_fast ship" id=":3244635508_2_1" index="1" length="0.26" shape="573585.12,-3862931.34 573585.39,-3862931.31" speed="12.50"/>
    </edge>
    <edge function="internal" id=":917336870_0">
        <lane allow="bus bicycle" id=":917336870_0_0" index="0" length="9.01" shape="573781.57,-3863031.83 573781.73,-3863029.37 573782.64,-3863027.55 573784.30,-3863026.36 573786.71,-3863025.81" speed="6.51"/>
        <lane disallow="tram rail_urban rail rail_electric rail_fast ship" id=":917336870_0_1" index="1" length="11.70" shape="573781.57,-3863031.83 573781.62,-3863027.97 573782.45,-3863025.15 573784.06,-3863023.37 573786.44,-3863022.62" speed="7.33"/>
    </edge>
    <edge function="internal" id=":917336870_2">
        <lane disallow="tram rail_urban rail rail_electric rail_fast ship" id=":917336870_2_0" index="0" length="17.59" shape="573781.57,-3863031.83 573780.15,-3863014.29" speed="12.50"/>
        <lane disallow="tram rail_urban rail rail_electric rail_fast ship" id=":917336870_2_1" index="1" length="17.59" shape="573778.38,-3863032.08 573776.96,-3863014.56" speed="12.50"/>
    </edge>
    <edge function="internal" id=":917336870_4">
        <lane allow="bus bicycle" id=":917336870_4_0" index="0" length="14.43" shape="573772.32,-3863026.93 573786.71,-3863025.81" speed="12.50"/>
    </edge>
    <edge function="internal" id=":917336870_5">
        <lane allow="bus bicycle" id=":917336870_5_0" index="0" length="16.88" shape="573772.32,-3863026.93 573776.13,-3863025.90 573778.70,-3863023.45 573780.04,-3863019.58 573780.15,-3863014.29" speed="8.65"/>
    </edge>
    <edge function="internal" id=":917336870_6">
        <lane disallow="tram rail_urban rail rail_electric rail_fast ship" id=":917336870_6_0" index="0" length="14.39" shape="573772.08,-3863023.74 573786.44,-3863022.62" speed="12.50"/>
        <lane disallow="tram rail_urban rail rail_electric rail_fast ship" id=":917336870_6_1" index="1" length="14.39" shape="573771.85,-3863020.55 573786.18,-3863019.43" speed="12.50"/>
    </edge>
    <edge function="internal" id=":917336870_8">
        <lane disallow="tram rail_urban rail rail_electric rail_fast ship" id=":917336870_8_0" index="0" length="9.00" shape="573771.85,-3863020.55 573774.26,-3863020.02 573775.92,-3863018.85 573776.82,-3863017.03 573776.96,-3863014.56" speed="6.47"/>
    </edge>
    <edge function="internal" id=":917357642_0">
        <lane disallow="tram rail_urban rail rail_electric rail_fast ship" id=":917357642_0_0" index="0" length="9.03" shape="573993.37,-3863100.92 573993.21,-3863103.39 573992.30,-3863105.21 573990.64,-3863106.39 573988.22,-3863106.93" speed="6.50"/>
        <lane disallow="tram rail_urban rail rail_electric rail_fast ship" id=":917357642_0_1" index="1" length="11.73" shape="573993.37,-3863100.92 573993.32,-3863104.79 573992.49,-3863107.61 573990.87,-3863109.39 573988.46,-3863110.12" speed="7.32"/>
    </edge>
    <edge function="internal" id=":917357642_2">
        <lane disallow="tram rail_urban rail rail_electric rail_fast ship" id=":917357642_2_0" index="0" length="14.39" shape="573993.37,-3863100.92 573994.55,-3863115.26" speed="12.50"/>
    </edge>
    <edge function="internal" id=":917366828_0">
        <lane allow="bus bicycle" id=":917366828_0_0" index="0" length="11.23" shape="573363.29,-3863058.57 573374.49,-3863057.66" speed="12.50"/>
    </edge>
    <edge function="internal" id=":917366828_1">
        <lane disallow="tram rail_urban rail rail_electric rail_fast ship" id=":917366828_1_0" index="0" length="2.53" shape="573363.03,-3863055.38 573365.53,-3863055.72" speed="7.34"/>
    </edge>
    <edge function="internal" id=":917366828_2">
        <lane disallow="tram rail_urban rail rail_electric rail_fast ship" id=":917366828_2_0" index="0" length="11.24" shape="573363.03,-3863055.38 573374.23,-3863054.47" speed="12.50"/>
        <lane disallow="tram rail_urban rail rail_electric rail_fast ship" id=":917366828_2_1" index="1" length="11.24" shape="573362.77,-3863052.19 573373.98,-3863051.28" speed="12.50"/>
    </edge>
    <edge function="internal" id=":917366828_7">
        <lane disallow="tram rail_urban rail rail_electric rail_fast ship" id=":917366828_7_0" index="0" length="9.23" shape="573365.53,-3863055.72 573367.42,-3863057.22 573368.71,-3863059.88 573369.39,-3863063.68" speed="7.34"/>
    </edge>
    <edge function="internal" id=":917366828_4">
        <lane disallow="tram rail_urban rail rail_electric rail_fast ship" id=":917366828_4_0" index="0" length="17.59" shape="573367.85,-3863046.16 573369.39,-3863063.68" speed="12.50"/>
    </edge>
    <edge function="internal" id=":917366828_5">
        <lane disallow="tram rail_urban rail rail_electric rail_fast ship" id=":917366828_5_0" index="0" length="11.77" shape="573367.85,-3863046.16 573368.54,-3863049.96 573369.84,-3863052.62 573371.74,-3863054.12 573374.23,-3863054.47" speed="7.36"/>
        <lane disallow="tram rail_urban rail rail_electric rail_fast ship" id=":917366828_5_1" index="1" length="9.09" shape="573367.85,-3863046.16 573368.42,-3863048.57 573369.63,-3863050.23 573371.48,-3863051.13 573373.98,-3863051.28" speed="6.55"/>
    </edge>
    <edge function="internal" id=":917370760_0">
        <lane disallow="tram rail_urban rail rail_electric rail_fast ship" id=":917370760_0_0" index="0" length="9.03" shape="573258.28,-3862965.32 573258.43,-3862962.84 573259.33,-3862961.02 573260.99,-3862959.85 573263.42,-3862959.33" speed="6.47"/>
        <lane disallow="tram rail_urban rail rail_electric rail_fast ship" id=":917370760_0_1" index="1" length="11.75" shape="573258.28,-3862965.32 573258.31,-3862961.45 573259.14,-3862958.63 573260.77,-3862956.85 573263.20,-3862956.13" speed="7.29"/>
    </edge>
    <edge function="internal" id=":917374956_0">
        <lane disallow="tram rail_urban rail rail_electric rail_fast ship" id=":917374956_0_0" index="0" length="9.04" shape="573485.71,-3863147.38 573483.23,-3863147.30 573481.39,-3863146.44 573480.17,-3863144.80 573479.60,-3863142.39" speed="6.47"/>
    </edge>
    <edge function="internal" id=":917374956_1">
        <lane disallow="tram rail_urban rail rail_electric rail_fast ship" id=":917374956_1_0" index="0" length="11.32" shape="573485.71,-3863147.38 573474.50,-3863148.41" speed="12.50"/>
        <lane disallow="tram rail_urban rail rail_electric rail_fast ship" id=":917374956_1_1" index="1" length="11.32" shape="573486.07,-3863150.56 573474.74,-3863151.60" speed="12.50"/>
    </edge>
    <edge function="internal" id=":917374956_3">
        <lane disallow="tram rail_urban rail rail_electric rail_fast ship" id=":917374956_3_0" index="0" length="14.43" shape="573480.80,-3863156.77 573479.60,-3863142.39" speed="12.50"/>
    </edge>
    <edge function="internal" id=":917374956_4">
        <lane disallow="tram rail_urban rail rail_electric rail_fast ship" id=":917374956_4_0" index="0" length="9.09" shape="573480.80,-3863156.77 573480.27,-3863154.35 573479.08,-3863152.68 573477.23,-3863151.77 573474.74,-3863151.60" speed="6.53"/>
    </edge>
    <edge function="internal" id=":917389528_0">
        <lane allow="bus bicycle" id=":917389528_0_0" index="0" length="9.03" shape="573471.46,-3863055.54 573471.58,-3863053.07 573472.47,-3863051.23 573474.13,-3863050.05 573476.55,-3863049.50" speed="6.48"/>
        <lane disallow="tram rail_urban rail rail_electric rail_fast ship" id=":917389528_0_1" index="1" length="11.75" shape="573471.46,-3863055.54 573471.46,-3863051.67 573472.26,-3863048.84 573473.87,-3863047.06 573476.29,-3863046.31" speed="7.30"/>
    </edge>
    <edge function="internal" id=":917389528_2">
        <lane disallow="tram rail_urban rail rail_electric rail_fast ship" id=":917389528_2_0" index="0" length="17.64" shape="573471.46,-3863055.54 573470.07,-3863037.95" speed="12.50"/>
    </edge>
    <edge function="internal" id=":917389528_3">
        <lane allow="bus bicycle" id=":917389528_3_0" index="0" length="11.20" shape="573465.38,-3863050.39 573476.55,-3863049.50" speed="12.50"/>
        <lane disallow="tram rail_urban rail rail_electric rail_fast ship" id=":917389528_3_1" index="1" length="11.20" shape="573465.12,-3863047.20 573476.29,-3863046.31" speed="12.50"/>
        <lane disallow="tram rail_urban rail rail_electric rail_fast ship" id=":917389528_3_2" index="2" length="11.20" shape="573464.87,-3863044.01 573476.04,-3863043.12" speed="12.50"/>
    </edge>
    <edge function="internal" id=":917389528_6">
        <lane disallow="tram rail_urban rail rail_electric rail_fast ship" id=":917389528_6_0" index="0" length="9.07" shape="573464.87,-3863044.01 573467.28,-3863043.47 573468.95,-3863042.27 573469.88,-3863040.44 573470.07,-3863037.95" speed="6.55"/>
    </edge>
    <edge function="internal" id=":917410869_0">
        <lane disallow="tram rail_urban rail rail_electric rail_fast ship" id=":917410869_0_0" index="0" length="9.03" shape="574002.28,-3863204.16 574002.14,-3863206.63 574001.24,-3863208.46 573999.58,-3863209.65 573997.17,-3863210.19" speed="6.49"/>
        <lane disallow="tram rail_urban rail rail_electric rail_fast ship" id=":917410869_0_1" index="1" length="11.74" shape="574002.28,-3863204.16 574002.26,-3863208.02 574001.44,-3863210.85 573999.83,-3863212.64 573997.42,-3863213.38" speed="7.31"/>
    </edge>
    <edge function="internal" id=":917427188_0">
        <lane disallow="tram rail_urban rail rail_electric rail_fast ship" id=":917427188_0_0" index="0" length="9.03" shape="573903.41,-3863217.65 573900.94,-3863217.49 573899.12,-3863216.58 573897.94,-3863214.92 573897.42,-3863212.49" speed="6.49"/>
    </edge>
    <edge function="internal" id=":917427188_1">
        <lane disallow="tram rail_urban rail rail_electric rail_fast ship" id=":917427188_1_0" index="0" length="11.20" shape="573903.41,-3863217.65 573892.25,-3863218.54" speed="12.50"/>
        <lane disallow="tram rail_urban rail rail_electric rail_fast ship" id=":917427188_1_1" index="1" length="11.20" shape="573903.67,-3863220.84 573892.50,-3863221.73" speed="12.50"/>
    </edge>
    <edge function="internal" id=":917440741_0">
        <lane allow="bus bicycle" id=":917440741_0_0" index="0" length="11.22" shape="573568.81,-3863042.16 573579.99,-3863041.29" speed="12.50"/>
    </edge>
    <edge function="internal" id=":917440741_1">
        <lane disallow="tram rail_urban rail rail_electric rail_fast ship" id=":917440741_1_0" index="0" length="11.74" shape="573568.55,-3863038.97 573571.05,-3863039.32 573572.92,-3863040.83 573574.18,-3863043.49 573574.81,-3863047.30" speed="7.32"/>
    </edge>
    <edge function="internal" id=":917440741_2">
        <lane disallow="tram rail_urban rail rail_electric rail_fast ship" id=":917440741_2_0" index="0" length="11.24" shape="573568.55,-3863038.97 573579.75,-3863038.10" speed="12.50"/>
        <lane disallow="tram rail_urban rail rail_electric rail_fast ship" id=":917440741_2_1" index="1" length="11.24" shape="573568.30,-3863035.78 573579.51,-3863034.91" speed="12.50"/>
    </edge>
    <edge function="internal" id=":917440741_4">
        <lane disallow="tram rail_urban rail rail_electric rail_fast ship" id=":917440741_4_0" index="0" length="17.61" shape="573573.51,-3863029.74 573574.81,-3863047.30" speed="12.50"/>
    </edge>
    <edge function="internal" id=":917440741_5">
        <lane disallow="tram rail_urban rail rail_electric rail_fast ship" id=":917440741_5_0" index="0" length="11.73" shape="573573.51,-3863029.74 573574.14,-3863033.56 573575.39,-3863036.22 573577.26,-3863037.73 573579.75,-3863038.10" speed="7.32"/>
        <lane disallow="tram rail_urban rail rail_electric rail_fast ship" id=":917440741_5_1" index="1" length="9.03" shape="573573.51,-3863029.74 573574.04,-3863032.16 573575.21,-3863033.83 573577.04,-3863034.74 573579.51,-3863034.91" speed="6.51"/>
    </edge>
    <edge function="internal" id=":917482509_0">
        <lane disallow="tram rail_urban rail rail_electric rail_fast ship" id=":917482509_0_0" index="0" length="14.43" shape="573692.59,-3863129.44 573678.20,-3863130.59" speed="12.50"/>
        <lane disallow="tram rail_urban rail rail_electric rail_fast ship" id=":917482509_0_1" index="1" length="14.43" shape="573692.83,-3863132.63 573678.46,-3863133.78" speed="12.50"/>
    </edge>
    <edge function="internal" id=":917482509_2">
        <lane disallow="tram rail_urban rail rail_electric rail_fast ship" id=":917482509_2_0" index="0" length="9.07" shape="573692.83,-3863132.63 573690.42,-3863133.17 573688.75,-3863134.35 573687.83,-3863136.19 573687.66,-3863138.68" speed="6.52"/>
    </edge>
    <edge function="internal" id=":917482509_3">
        <lane disallow="tram rail_urban rail rail_electric rail_fast ship" id=":917482509_3_0" index="0" length="9.05" shape="573683.32,-3863124.54 573683.19,-3863127.01 573682.28,-3863128.84 573680.62,-3863130.04 573678.20,-3863130.59" speed="6.51"/>
    </edge>
    <edge function="internal" id=":917482509_4">
        <lane disallow="tram rail_urban rail rail_electric rail_fast ship" id=":917482509_4_0" index="0" length="14.44" shape="573683.32,-3863124.54 573684.47,-3863138.91" speed="12.50"/>
        <lane disallow="tram rail_urban rail rail_electric rail_fast ship" id=":917482509_4_1" index="1" length="14.44" shape="573686.51,-3863124.26 573687.66,-3863138.68" speed="12.50"/>
    </edge>
    <edge function="internal" id=":917494705_0">
        <lane disallow="tram rail_urban rail rail_electric rail_fast ship" id=":917494705_0_0" index="0" length="11.15" shape="573587.14,-3863138.25 573576.03,-3863139.20" speed="12.50"/>
        <lane disallow="tram rail_urban rail rail_electric rail_fast ship" id=":917494705_0_1" index="1" length="11.15" shape="573587.41,-3863141.44 573576.31,-3863142.39" speed="12.50"/>
    </edge>
    <edge function="internal" id=":917494705_2">
        <lane disallow="tram rail_urban rail rail_electric rail_fast ship" id=":917494705_2_0" index="0" length="9.00" shape="573587.41,-3863141.44 573585.00,-3863141.99 573583.35,-3863143.17 573582.44,-3863144.99 573582.29,-3863147.45" speed="6.51"/>
    </edge>
    <edge function="internal" id=":917494705_3">
        <lane disallow="tram rail_urban rail rail_electric rail_fast ship" id=":917494705_3_0" index="0" length="9.03" shape="573581.19,-3863133.17 573581.02,-3863135.62 573580.10,-3863137.45 573578.44,-3863138.64 573576.03,-3863139.20" speed="6.54"/>
    </edge>
    <edge function="internal" id=":917494705_4">
        <lane disallow="tram rail_urban rail rail_electric rail_fast ship" id=":917494705_4_0" index="0" length="14.32" shape="573581.19,-3863133.17 573582.29,-3863147.45" speed="12.50"/>
    </edge>
    <edge function="internal" id=":917500859_0">
        <lane disallow="tram rail_urban rail rail_electric rail_fast ship" id=":917500859_0_0" index="0" length="14.44" shape="573776.99,-3862909.65 573762.59,-3862910.76" speed="12.50"/>
        <lane disallow="tram rail_urban rail rail_electric rail_fast ship" id=":917500859_0_1" index="1" length="14.44" shape="573777.23,-3862912.84 573762.84,-3862913.95" speed="12.50"/>
    </edge>
    <edge function="internal" id=":917500859_2">
        <lane disallow="tram rail_urban rail rail_electric rail_fast ship" id=":917500859_2_0" index="0" length="9.03" shape="573772.59,-3862925.24 573772.73,-3862922.76 573773.63,-3862920.94 573775.29,-3862919.76 573777.71,-3862919.22" speed="6.49"/>
    </edge>
    <edge function="internal" id=":917500859_3">
        <lane disallow="tram rail_urban rail rail_electric rail_fast ship" id=":917500859_3_0" index="0" length="14.59" shape="573769.40,-3862925.51 573768.61,-3862920.29 573767.25,-3862916.62 573765.33,-3862914.51 573762.84,-3862913.95" speed="8.12"/>
    </edge>
    <edge function="internal" id=":917500859_4">
        <lane disallow="tram rail_urban rail rail_electric rail_fast ship" id=":917500859_4_0" index="0" length="14.41" shape="573763.35,-3862920.33 573777.71,-3862919.22" speed="12.50"/>
        <lane disallow="tram rail_urban rail rail_electric rail_fast ship" id=":917500859_4_1" index="1" length="14.41" shape="573763.09,-3862917.14 573777.47,-3862916.03" speed="12.50"/>
    </edge>
    <edge function="internal" id=":917507232_0">
        <lane disallow="tram rail_urban rail rail_electric rail_fast ship" id=":917507232_0_0" index="0" length="11.75" shape="573980.31,-3863005.74 573982.83,-3863006.06 573984.72,-3863007.55 573985.99,-3863010.20 573986.64,-3863014.02" speed="7.30"/>
    </edge>
    <edge function="internal" id=":917507232_1">
        <lane disallow="tram rail_urban rail rail_electric rail_fast ship" id=":917507232_1_0" index="0" length="17.61" shape="573985.21,-3862996.46 573986.64,-3863014.02" speed="12.50"/>
    </edge>
    <edge function="internal" id=":917521463_0">
        <lane disallow="tram rail_urban rail rail_electric rail_fast ship" id=":917521463_0_0" index="0" length="4.09" shape="573853.90,-3862903.12 573852.94,-3862903.52 573852.25,-3862903.75 573851.55,-3862903.88 573850.51,-3862903.98" speed="12.50"/>
        <lane disallow="tram rail_urban rail rail_electric rail_fast ship" id=":917521463_0_1" index="1" length="4.09" shape="573855.23,-3862906.03 573853.95,-3862906.56 573853.06,-3862906.87 573852.13,-3862907.04 573850.76,-3862907.17" speed="12.50"/>
    </edge>
    <edge function="internal" id=":917521463_2">
        <lane disallow="tram rail_urban rail rail_electric rail_fast ship" id=":917521463_2_0" index="0" length="5.38" shape="573851.27,-3862913.55 573852.72,-3862913.42 573853.72,-3862913.34 573854.71,-3862913.41 573856.12,-3862913.69" speed="12.50"/>
        <lane disallow="tram rail_urban rail rail_electric rail_fast ship" id=":917521463_2_1" index="1" length="5.38" shape="573851.01,-3862910.36 573852.75,-3862910.21 573853.95,-3862910.14 573855.13,-3862910.23 573856.83,-3862910.57" speed="12.50"/>
    </edge>
    <edge function="internal" id=":917524576_0">
        <lane disallow="tram rail_urban rail rail_electric rail_fast ship" id=":917524576_0_0" index="0" length="14.35" shape="573700.24,-3863233.78 573685.93,-3863234.92" speed="12.50"/>
        <lane disallow="tram rail_urban rail rail_electric rail_fast ship" id=":917524576_0_1" index="1" length="14.35" shape="573700.49,-3863236.97 573686.18,-3863238.11" speed="12.50"/>
    </edge>
    <edge function="internal" id=":917524576_2">
        <lane disallow="tram rail_urban rail rail_electric rail_fast ship" id=":917524576_2_0" index="0" length="9.02" shape="573691.07,-3863228.89 573690.90,-3863231.36 573689.99,-3863233.19 573688.33,-3863234.38 573685.93,-3863234.92" speed="6.52"/>
        <lane disallow="tram rail_urban rail rail_electric rail_fast ship" id=":917524576_2_1" index="1" length="14.16" shape="573694.26,-3863228.66 573694.00,-3863232.53 573692.56,-3863235.40 573689.96,-3863237.26 573686.18,-3863238.11" speed="8.01"/>
    </edge>
    <edge function="internal" id=":917533316_0">
        <lane disallow="tram rail_urban rail rail_electric rail_fast ship" id=":917533316_0_0" index="0" length="11.10" shape="573468.74,-3862934.25 573457.67,-3862935.11" speed="12.50"/>
        <lane disallow="tram rail_urban rail rail_electric rail_fast ship" id=":917533316_0_1" index="1" length="11.10" shape="573468.99,-3862937.44 573457.92,-3862938.30" speed="12.50"/>
    </edge>
    <edge function="internal" id=":917533316_2">
        <lane disallow="tram rail_urban rail rail_electric rail_fast ship" id=":917533316_2_0" index="0" length="8.98" shape="573464.33,-3862949.81 573464.52,-3862947.35 573465.44,-3862945.53 573467.09,-3862944.36 573469.48,-3862943.82" speed="6.52"/>
    </edge>
    <edge function="internal" id=":917533316_3">
        <lane disallow="tram rail_urban rail rail_electric rail_fast ship" id=":917533316_3_0" index="0" length="14.53" shape="573464.33,-3862949.81 573463.64,-3862944.61 573462.34,-3862940.96 573460.43,-3862938.86 573457.92,-3862938.30" speed="8.05"/>
    </edge>
    <edge function="internal" id=":917533316_4">
        <lane disallow="tram rail_urban rail rail_electric rail_fast ship" id=":917533316_4_0" index="0" length="11.10" shape="573458.42,-3862944.69 573469.48,-3862943.82" speed="12.50"/>
        <lane disallow="tram rail_urban rail rail_electric rail_fast ship" id=":917533316_4_1" index="1" length="11.10" shape="573458.17,-3862941.49 573469.23,-3862940.63" speed="12.50"/>
    </edge>
    <edge function="internal" id=":917541521_0">
        <lane disallow="tram rail_urban rail rail_electric rail_fast ship" id=":917541521_0_0" index="0" length="11.24" shape="573382.82,-3863155.10 573371.61,-3863155.97" speed="12.50"/>
        <lane disallow="tram rail_urban rail rail_electric rail_fast ship" id=":917541521_0_1" index="1" length="11.24" shape="573383.06,-3863158.30 573371.86,-3863159.16" speed="12.50"/>
    </edge>
    <edge function="internal" id=":917541521_2">
        <lane disallow="tram rail_urban rail rail_electric rail_fast ship" id=":917541521_2_0" index="0" length="9.03" shape="573383.06,-3863158.30 573380.64,-3863158.82 573378.97,-3863160.00 573378.06,-3863161.83 573377.91,-3863164.30" speed="6.49"/>
    </edge>
    <edge function="internal" id=":917541521_3">
        <lane disallow="tram rail_urban rail rail_electric rail_fast ship" id=":917541521_3_0" index="0" length="9.03" shape="573376.72,-3863149.93 573376.58,-3863152.40 573375.68,-3863154.23 573374.02,-3863155.42 573371.61,-3863155.97" speed="6.50"/>
    </edge>
    <edge function="internal" id=":917541521_4">
        <lane disallow="tram rail_urban rail rail_electric rail_fast ship" id=":917541521_4_0" index="0" length="14.42" shape="573376.72,-3863149.93 573377.91,-3863164.30" speed="12.50"/>
    </edge>
    <edge function="internal" id=":917541835_0">
        <lane disallow="tram rail_urban rail rail_electric rail_fast ship" id=":917541835_0_0" index="0" length="11.20" shape="573391.17,-3863258.33 573380.01,-3863259.21" speed="12.50"/>
        <lane disallow="tram rail_urban rail rail_electric rail_fast ship" id=":917541835_0_1" index="1" length="11.20" shape="573391.42,-3863261.52 573380.27,-3863262.40" speed="12.50"/>
    </edge>
    <edge function="internal" id=":917541835_2">
        <lane disallow="tram rail_urban rail rail_electric rail_fast ship" id=":917541835_2_0" index="0" length="9.03" shape="573385.09,-3863253.17 573384.97,-3863255.65 573384.08,-3863257.48 573382.43,-3863258.67 573380.01,-3863259.21" speed="6.48"/>
    </edge>
    <edge function="internal" id=":917543762_0">
        <lane disallow="tram rail_urban rail rail_electric rail_fast ship" id=":917543762_0_0" index="0" length="9.03" shape="573929.52,-3862897.49 573927.05,-3862897.35 573925.22,-3862896.44 573924.03,-3862894.78 573923.49,-3862892.36" speed="6.50"/>
    </edge>
    <edge function="internal" id=":917543762_1">
        <lane disallow="tram rail_urban rail rail_electric rail_fast ship" id=":917543762_1_0" index="0" length="11.17" shape="573929.52,-3862897.49 573918.38,-3862898.47" speed="12.50"/>
        <lane disallow="tram rail_urban rail rail_electric rail_fast ship" id=":917543762_1_1" index="1" length="11.17" shape="573929.78,-3862900.68 573918.67,-3862901.65" speed="12.50"/>
    </edge>
    <edge function="internal" id=":917543762_3">
        <lane disallow="tram rail_urban rail rail_electric rail_fast ship" id=":917543762_3_0" index="0" length="11.10" shape="573919.26,-3862908.03 573930.31,-3862907.06" speed="12.50"/>
        <lane disallow="tram rail_urban rail rail_electric rail_fast ship" id=":917543762_3_1" index="1" length="11.10" shape="573918.97,-3862904.84 573930.04,-3862903.87" speed="12.50"/>
    </edge>
    <edge function="internal" id=":917560069_0">
        <lane disallow="tram rail_urban rail rail_electric rail_fast ship" id=":917560069_0_0" index="0" length="14.41" shape="573675.14,-3862917.71 573660.78,-3862918.85" speed="12.50"/>