<?xml version="1.0" encoding="UTF-8" standalone="no"?><!-- generated on 2023-12-29 01:26:26 by Eclipse SUMO netedit Version 1.19.0
<configuration xmlns:xsi="http://www.w3.org/2001/XMLSchema-instance" xsi:noNamespaceSchemaLocation="http://sumo.dlr.de/xsd/neteditConfiguration.xsd">

    <input>
        <sumo-net-file value="C:\Users\PC\OneDrive\Imágenes\Escritorio\Sincronizacion-de-semaforos-main\instancia3.net.xml"/>
    </input>

    <output>
        <output-file value="C:\Users\PC\OneDrive\Imágenes\Escritorio\Sincronizacion-de-semaforos-main\instancia3.net.xml"/>
    </output>

    <processing>
        <geometry.min-radius.fix.railways value="false"/>
        <geometry.max-grade.fix value="false"/>
        <offset.disable-normalization value="true"/>
        <lefthand value="0"/>
    </processing>

    <junctions>
        <no-turnarounds value="true"/>
        <junctions.corner-detail value="5"/>
        <junctions.limit-turn-speed value="5.50"/>
        <rectangular-lane-cut value="0"/>
    </junctions>

    <pedestrian>
        <walkingareas value="0"/>
    </pedestrian>

</configuration>
--><net xmlns:xsi="http://www.w3.org/2001/XMLSchema-instance" junctionCornerDetail="5" limitTurnSpeed="5.50" version="1.16" xsi:noNamespaceSchemaLocation="http://sumo.dlr.de/xsd/net_file.xsd">

    <location convBoundary="573920.50,-3862687.86,574268.88,-3862151.36" netOffset="0.00,0.00" origBoundary="-56.199827,-34.909212,-56.184937,-34.898649" projParameter="+proj=utm +zone=21 +ellps=WGS84 +datum=WGS84 +units=m +no_defs"/>

    <type disallow="tram rail_urban rail rail_electric rail_fast ship" id="highway.residential" numLanes="1" oneway="0" priority="3" speed="13.89"/>
    <type disallow="tram rail_urban rail rail_electric rail_fast ship" id="highway.tertiary" numLanes="1" oneway="0" priority="10" speed="22.22"/>

    <edge function="internal" id=":917373831_0">
        <lane disallow="tram rail_urban rail rail_electric rail_fast ship" id=":917373831_0_0" index="0" length="8.97" shape="574189.07,-3862462.72 574191.51,-3862462.89 574193.32,-3862463.81 574194.50,-3862465.47 574195.05,-3862467.86" speed="6.52"/>
    </edge>
    <edge function="internal" id=":917373831_1">
        <lane disallow="tram rail_urban rail rail_electric rail_fast ship" id=":917373831_1_0" index="0" length="11.08" shape="574189.07,-3862462.72 574200.12,-3862461.90" speed="12.50"/>
        <lane disallow="tram rail_urban rail rail_electric rail_fast ship" id=":917373831_1_1" index="1" length="11.08" shape="574188.84,-3862459.53 574199.87,-3862458.71" speed="12.50"/>
    </edge>
    <edge function="internal" id=":917422676_0">
        <lane disallow="tram rail_urban rail rail_electric rail_fast ship" id=":917422676_0_0" index="0" length="16.84" shape="573958.34,-3862679.20 573959.27,-3862684.40 573961.18,-3862688.02 573964.08,-3862690.07 573967.97,-3862690.54" speed="8.67"/>
        <lane disallow="tram rail_urban rail rail_electric rail_fast ship" id=":917422676_0_1" index="1" length="11.72" shape="573961.54,-3862678.97 573962.16,-3862682.79 573963.40,-3862685.45 573965.26,-3862686.98 573967.74,-3862687.35" speed="7.33"/>
        <lane disallow="tram rail_urban rail rail_electric rail_fast ship" id=":917422676_0_2" index="2" length="9.03" shape="573961.54,-3862678.97 573962.06,-3862681.39 573963.23,-3862683.06 573965.05,-3862683.98 573967.52,-3862684.16" speed="6.51"/>
    </edge>
    <edge function="internal" id=":917424057_0">
        <lane disallow="tram rail_urban rail rail_electric rail_fast ship" id=":917424057_0_0" index="0" length="9.03" shape="574049.19,-3862479.39 574049.34,-3862476.93 574050.25,-3862475.11 574051.92,-3862473.93 574054.34,-3862473.38" speed="6.50"/>
        <lane disallow="tram rail_urban rail rail_electric rail_fast ship" id=":917424057_0_1" index="1" length="14.14" shape="574046.00,-3862479.65 574046.23,-3862475.78 574047.64,-3862472.92 574050.24,-3862471.06 574054.02,-3862470.20" speed="7.99"/>
    </edge>
    <edge function="internal" id=":917424057_2">
        <lane disallow="tram rail_urban rail rail_electric rail_fast ship" id=":917424057_2_0" index="0" length="14.52" shape="574046.00,-3862479.65 574046.14,-3862475.34 574047.01,-3862472.41 574047.88,-3862469.48 574048.05,-3862465.16" speed="12.50"/>
        <lane disallow="tram rail_urban rail rail_electric rail_fast ship" id=":917424057_2_1" index="1" length="14.52" shape="574046.00,-3862479.65 574044.86,-3862465.41" speed="12.50"/>
    </edge>
    <edge function="internal" id=":917424057_4">
        <lane disallow="tram rail_urban rail rail_electric rail_fast ship" id=":917424057_4_0" index="0" length="14.36" shape="574039.98,-3862474.55 574054.34,-3862473.38" speed="12.50"/>
        <lane disallow="tram rail_urban rail rail_electric rail_fast ship" id=":917424057_4_1" index="1" length="14.36" shape="574039.76,-3862471.36 574054.02,-3862470.20" speed="12.50"/>
    </edge>
    <edge function="internal" id=":917424057_6">
        <lane disallow="tram rail_urban rail rail_electric rail_fast ship" id=":917424057_6_0" index="0" length="8.95" shape="574039.76,-3862471.36 574042.15,-3862470.84 574043.80,-3862469.68 574044.70,-3862467.87 574044.86,-3862465.41" speed="6.46"/>
    </edge>
    <edge function="internal" id=":917438736_0">
        <lane disallow="tram rail_urban rail rail_electric rail_fast ship" id=":917438736_0_0" index="0" length="14.44" shape="574056.49,-3862684.25 574070.91,-3862683.17" speed="12.50"/>
        <lane disallow="tram rail_urban rail rail_electric rail_fast ship" id=":917438736_0_1" index="1" length="14.44" shape="574056.26,-3862681.06 574070.66,-3862679.98" speed="12.50"/>
        <lane disallow="tram rail_urban rail rail_electric rail_fast ship" id=":917438736_0_2" index="2" length="14.44" shape="574056.03,-3862677.87 574070.40,-3862676.79" speed="12.50"/>
    </edge>
    <edge function="internal" id=":917438736_3">
        <lane disallow="tram rail_urban rail rail_electric rail_fast ship" id=":917438736_3_0" index="0" length="11.73" shape="574056.03,-3862677.87 574059.85,-3862677.25 574062.51,-3862676.00 574064.03,-3862674.13 574064.40,-3862671.64" speed="7.32"/>
        <lane disallow="tram rail_urban rail rail_electric rail_fast ship" id=":917438736_3_1" index="1" length="9.03" shape="574056.03,-3862677.87 574058.45,-3862677.35 574060.12,-3862676.17 574061.04,-3862674.35 574061.20,-3862671.88" speed="6.50"/>
    </edge>
    <edge function="internal" id=":917445639_0">
        <lane disallow="tram rail_urban rail rail_electric rail_fast ship" id=":917445639_0_0" index="0" length="14.51" shape="574249.09,-3862360.95 574247.82,-3862346.44" speed="12.50"/>
        <lane disallow="tram rail_urban rail rail_electric rail_fast ship" id=":917445639_0_1" index="1" length="14.51" shape="574245.90,-3862361.18 574244.63,-3862346.77" speed="12.50"/>
    </edge>
    <edge function="internal" id=":917445639_2">
        <lane disallow="tram rail_urban rail rail_electric rail_fast ship" id=":917445639_2_0" index="0" length="11.79" shape="574245.90,-3862361.18 574245.27,-3862357.36 574244.01,-3862354.69 574242.12,-3862353.18 574239.60,-3862352.82" speed="7.33"/>
        <lane disallow="tram rail_urban rail rail_electric rail_fast ship" id=":917445639_2_1" index="1" length="9.09" shape="574245.90,-3862361.18 574245.37,-3862358.75 574244.19,-3862357.09 574242.34,-3862356.17 574239.84,-3862356.01" speed="6.51"/>
    </edge>
    <edge function="internal" id=":917453579_0">
        <lane disallow="tram rail_urban rail rail_electric rail_fast ship" id=":917453579_0_0" index="0" length="14.41" shape="574163.58,-3862565.69 574149.25,-3862566.85" speed="12.50"/>
        <lane disallow="tram rail_urban rail rail_electric rail_fast ship" id=":917453579_0_1" index="1" length="14.41" shape="574163.86,-3862568.88 574149.50,-3862570.04" speed="12.50"/>
        <lane disallow="tram rail_urban rail rail_electric rail_fast ship" id=":917453579_0_2" index="2" length="14.41" shape="574164.13,-3862572.07 574149.74,-3862573.23" speed="12.50"/>
    </edge>
    <edge function="internal" id=":917453579_3">
        <lane disallow="tram rail_urban rail rail_electric rail_fast ship" id=":917453579_3_0" index="0" length="9.07" shape="574164.13,-3862572.07 574161.69,-3862572.63 574160.01,-3862573.82 574159.09,-3862575.65 574158.94,-3862578.11" speed="6.53"/>
    </edge>
    <edge function="internal" id=":917453579_4">
        <lane disallow="tram rail_urban rail rail_electric rail_fast ship" id=":917453579_4_0" index="0" length="9.05" shape="574154.41,-3862560.81 574154.24,-3862563.29 574153.32,-3862565.13 574151.66,-3862566.31 574149.25,-3862566.85" speed="6.53"/>
    </edge>
    <edge function="internal" id=":917453579_5">
        <lane disallow="tram rail_urban rail rail_electric rail_fast ship" id=":917453579_5_0" index="0" length="17.60" shape="574154.41,-3862560.81 574155.75,-3862578.37" speed="12.50"/>
        <lane disallow="tram rail_urban rail rail_electric rail_fast ship" id=":917453579_5_1" index="1" length="17.60" shape="574157.61,-3862560.58 574158.94,-3862578.11" speed="12.50"/>
    </edge>
    <edge function="internal" id=":917471404_0">
        <lane disallow="tram rail_urban rail rail_electric rail_fast ship" id=":917471404_0_0" index="0" length="14.39" shape="573942.12,-3862472.38 573943.26,-3862486.74" speed="12.50"/>
        <lane disallow="tram rail_urban rail rail_electric rail_fast ship" id=":917471404_0_1" index="1" length="14.39" shape="573945.31,-3862472.14 573946.44,-3862486.47" speed="12.50"/>
    </edge>
    <edge function="internal" id=":917471404_2">
        <lane disallow="tram rail_urban rail rail_electric rail_fast ship" id=":917471404_2_0" index="0" length="11.73" shape="573945.31,-3862472.14 573945.94,-3862475.95 573947.20,-3862478.61 573949.07,-3862480.13 573951.56,-3862480.51" speed="7.34"/>
        <lane disallow="tram rail_urban rail rail_electric rail_fast ship" id=":917471404_2_1" index="1" length="9.05" shape="573945.31,-3862472.14 573945.84,-3862474.55 573947.02,-3862476.21 573948.86,-3862477.14 573951.35,-3862477.32" speed="6.53"/>
    </edge>
    <edge function="internal" id=":917488753_0">
        <lane disallow="tram rail_urban rail rail_electric rail_fast ship" id=":917488753_0_0" index="0" length="9.06" shape="574046.06,-3862366.74 574043.58,-3862366.56 574041.75,-3862365.63 574040.57,-3862363.96 574040.02,-3862361.54" speed="6.54"/>
    </edge>
    <edge function="internal" id=":917488753_1">
        <lane disallow="tram rail_urban rail rail_electric rail_fast ship" id=":917488753_1_0" index="0" length="14.37" shape="574046.06,-3862366.74 574031.72,-3862367.74" speed="12.50"/>
        <lane disallow="tram rail_urban rail rail_electric rail_fast ship" id=":917488753_1_1" index="1" length="14.37" shape="574046.27,-3862369.94 574031.94,-3862370.93" speed="12.50"/>
    </edge>
    <edge function="internal" id=":917488753_3">
        <lane disallow="tram rail_urban rail rail_electric rail_fast ship" id=":917488753_3_0" index="0" length="14.37" shape="574041.14,-3862375.86 574040.02,-3862361.54" speed="12.50"/>
        <lane disallow="tram rail_urban rail rail_electric rail_fast ship" id=":917488753_3_1" index="1" length="14.37" shape="574037.95,-3862376.11 574036.83,-3862361.79" speed="12.50"/>
    </edge>
    <edge function="internal" id=":917488753_5">
        <lane disallow="tram rail_urban rail rail_electric rail_fast ship" id=":917488753_5_0" index="0" length="9.03" shape="574037.95,-3862376.11 574037.41,-3862373.69 574036.23,-3862372.02 574034.41,-3862371.10 574031.94,-3862370.93" speed="6.52"/>
    </edge>
    <edge function="internal" id=":917490038_0">
        <lane disallow="tram rail_urban rail rail_electric rail_fast ship" id=":917490038_0_0" index="0" length="9.03" shape="574125.81,-3862259.67 574128.29,-3862259.79 574130.12,-3862260.69 574131.30,-3862262.34 574131.83,-3862264.77" speed="6.47"/>
    </edge>
    <edge function="internal" id=":917490038_1">
        <lane disallow="tram rail_urban rail rail_electric rail_fast ship" id=":917490038_1_0" index="0" length="14.46" shape="574125.81,-3862259.67 574140.19,-3862258.48" speed="12.50"/>
        <lane disallow="tram rail_urban rail rail_electric rail_fast ship" id=":917490038_1_1" index="1" length="14.46" shape="574125.52,-3862256.48 574139.96,-3862255.28" speed="12.50"/>
    </edge>
    <edge function="internal" id=":917490038_3">
        <lane disallow="tram rail_urban rail rail_electric rail_fast ship" id=":917490038_3_0" index="0" length="14.45" shape="574130.75,-3862250.36 574131.83,-3862264.77" speed="12.50"/>
        <lane disallow="tram rail_urban rail rail_electric rail_fast ship" id=":917490038_3_1" index="1" length="14.45" shape="574133.94,-3862250.12 574135.03,-3862264.53" speed="12.50"/>
    </edge>
    <edge function="internal" id=":917490038_5">
        <lane disallow="tram rail_urban rail rail_electric rail_fast ship" id=":917490038_5_0" index="0" length="9.04" shape="574133.94,-3862250.12 574134.48,-3862252.53 574135.66,-3862254.20 574137.48,-3862255.12 574139.96,-3862255.28" speed="6.51"/>
    </edge>
    <edge function="internal" id=":917495305_0">
        <lane disallow="tram rail_urban rail rail_electric rail_fast ship" id=":917495305_0_0" index="0" length="14.42" shape="574158.13,-3862676.22 574172.52,-3862675.04" speed="12.50"/>
        <lane disallow="tram rail_urban rail rail_electric rail_fast ship" id=":917495305_0_1" index="1" length="14.42" shape="574157.87,-3862673.03 574172.25,-3862671.85" speed="12.50"/>
        <lane disallow="tram rail_urban rail rail_electric rail_fast ship" id=":917495305_0_2" index="2" length="14.42" shape="574157.62,-3862669.84 574171.98,-3862668.66" speed="12.50"/>
    </edge>
    <edge function="internal" id=":917495305_3">
        <lane disallow="tram rail_urban rail rail_electric rail_fast ship" id=":917495305_3_0" index="0" length="14.20" shape="574162.75,-3862663.81 574163.61,-3862667.61 574165.48,-3862670.21 574168.36,-3862671.63 574172.25,-3862671.85" speed="8.00"/>
        <lane disallow="tram rail_urban rail rail_electric rail_fast ship" id=":917495305_3_1" index="1" length="9.03" shape="574165.94,-3862663.55 574166.48,-3862665.96 574167.67,-3862667.62 574169.51,-3862668.52 574171.98,-3862668.66" speed="6.50"/>
    </edge>
    <edge function="internal" id=":917503564_0">
        <lane disallow="tram rail_urban rail rail_electric rail_fast ship" id=":917503564_0_0" index="0" length="7.69" shape="573923.52,-3862171.17 573921.47,-3862171.64 573920.06,-3862172.65 573919.28,-3862174.21 573919.14,-3862176.31" speed="6.08"/>
        <lane disallow="tram rail_urban rail rail_electric rail_fast ship" id=":917503564_0_1" index="1" length="2.56" shape="573923.79,-3862174.35 573923.11,-3862174.51 573922.64,-3862174.85 573922.38,-3862175.37 573922.34,-3862176.07" speed="3.90"/>
    </edge>
    <edge function="internal" id=":917517955_0">
        <lane disallow="tram rail_urban rail rail_electric rail_fast ship" id=":917517955_0_0" index="0" length="1.36" shape="574181.93,-3862150.08 574181.36,-3862149.89 574180.95,-3862149.79 574180.54,-3862149.78 574179.94,-3862149.82" speed="8.64"/>
        <lane disallow="tram rail_urban rail rail_electric rail_fast ship" id=":917517955_0_1" index="1" length="1.36" shape="574180.86,-3862153.10 574180.67,-3862153.03 574180.54,-3862153.00 574180.40,-3862153.00 574180.20,-3862153.01" speed="12.50"/>
    </edge>
    <edge function="internal" id=":917523522_0">
        <lane disallow="tram rail_urban rail rail_electric rail_fast ship" id=":917523522_0_0" index="0" length="11.15" shape="574208.74,-3862561.89 574197.60,-3862562.79" speed="12.50"/>
        <lane disallow="tram rail_urban rail rail_electric rail_fast ship" id=":917523522_0_1" index="1" length="11.15" shape="574208.98,-3862565.08 574197.87,-3862565.98" speed="12.50"/>
        <lane disallow="tram rail_urban rail rail_electric rail_fast ship" id=":917523522_0_2" index="2" length="11.15" shape="574209.22,-3862568.27 574198.14,-3862569.17" speed="12.50"/>
    </edge>
    <edge function="internal" id=":917523522_3">
        <lane disallow="tram rail_urban rail rail_electric rail_fast ship" id=":917523522_3_0" index="0" length="9.03" shape="574202.70,-3862556.73 574202.56,-3862559.20 574201.66,-3862561.04 574200.01,-3862562.23 574197.60,-3862562.79" speed="6.51"/>
    </edge>
    <edge function="internal" id=":917534399_0">
        <lane disallow="tram rail_urban rail rail_electric rail_fast ship" id=":917534399_0_0" index="0" length="14.45" shape="574147.77,-3862359.85 574133.38,-3862360.89" speed="12.50"/>
        <lane disallow="tram rail_urban rail rail_electric rail_fast ship" id=":917534399_0_1" index="1" length="14.45" shape="574148.01,-3862363.04 574133.59,-3862364.08" speed="12.50"/>
    </edge>
    <edge function="internal" id=":917534399_2">
        <lane disallow="tram rail_urban rail rail_electric rail_fast ship" id=":917534399_2_0" index="0" length="9.03" shape="574148.01,-3862363.04 574145.59,-3862363.58 574143.93,-3862364.76 574143.03,-3862366.59 574142.88,-3862369.06" speed="6.49"/>
    </edge>
    <edge function="internal" id=":917534399_3">
        <lane disallow="tram rail_urban rail rail_electric rail_fast ship" id=":917534399_3_0" index="0" length="9.03" shape="574138.56,-3862354.91 574138.39,-3862357.39 574137.47,-3862359.21 574135.80,-3862360.37 574133.38,-3862360.89" speed="6.49"/>
    </edge>
    <edge function="internal" id=":917534399_4">
        <lane disallow="tram rail_urban rail rail_electric rail_fast ship" id=":917534399_4_0" index="0" length="14.45" shape="574138.56,-3862354.91 574139.70,-3862369.33" speed="12.50"/>
        <lane disallow="tram rail_urban rail rail_electric rail_fast ship" id=":917534399_4_1" index="1" length="14.45" shape="574141.75,-3862354.68 574142.88,-3862369.06" speed="12.50"/>
    </edge>
    <edge function="internal" id=":917544844_0">
        <lane disallow="tram rail_urban rail rail_electric rail_fast ship" id=":917544844_0_0" index="0" length="14.35" shape="574132.19,-3862153.74 574117.89,-3862154.91" speed="12.50"/>
        <lane disallow="tram rail_urban rail rail_electric rail_fast ship" id=":917544844_0_1" index="1" length="14.35" shape="574132.45,-3862156.93 574118.15,-3862158.10" speed="12.50"/>
    </edge>
    <edge function="internal" id=":917544844_2">
        <lane disallow="tram rail_urban rail rail_electric rail_fast ship" id=":917544844_2_0" index="0" length="11.70" shape="574132.45,-3862156.93 574128.66,-3862157.59 574126.01,-3862158.86 574124.50,-3862160.73 574124.14,-3862163.21" speed="7.34"/>
        <lane disallow="tram rail_urban rail rail_electric rail_fast ship" id=":917544844_2_1" index="1" length="9.02" shape="574132.45,-3862156.93 574130.05,-3862157.48 574128.40,-3862158.67 574127.49,-3862160.50 574127.33,-3862162.97" speed="6.52"/>
    </edge>
    <edge function="internal" id=":917549849_0">
        <lane disallow="tram rail_urban rail rail_electric rail_fast ship" id=":917549849_0_0" index="0" length="14.41" shape="574030.03,-3862162.09 574015.67,-3862163.29" speed="12.50"/>
        <lane disallow="tram rail_urban rail rail_electric rail_fast ship" id=":917549849_0_1" index="1" length="14.41" shape="574030.29,-3862165.28 574015.94,-3862166.48" speed="12.50"/>
    </edge>
    <edge function="internal" id=":917549849_2">
        <lane disallow="tram rail_urban rail rail_electric rail_fast ship" id=":917549849_2_0" index="0" length="14.22" shape="574025.16,-3862171.35 574024.31,-3862167.54 574022.44,-3862164.93 574019.56,-3862163.51 574015.67,-3862163.29" speed="7.99"/>
        <lane disallow="tram rail_urban rail rail_electric rail_fast ship" id=":917549849_2_1" index="1" length="9.03" shape="574021.97,-3862171.60 574021.43,-3862169.18 574020.24,-3862167.52 574018.41,-3862166.62 574015.94,-3862166.48" speed="6.49"/>
    </edge>
    <edge function="internal" id=":917567133_0">
        <lane disallow="tram rail_urban rail rail_electric rail_fast ship" id=":917567133_0_0" index="0" length="14.05" shape="574261.83,-3862664.27 574265.57,-3862663.41 574268.16,-3862661.55 574269.59,-3862658.71 574269.86,-3862654.88" speed="8.00"/>
        <lane disallow="tram rail_urban rail rail_electric rail_fast ship" id=":917567133_0_1" index="1" length="8.94" shape="574261.56,-3862661.08 574263.94,-3862660.53 574265.59,-3862659.35 574266.50,-3862657.54 574266.67,-3862655.10" speed="6.51"/>
    </edge>
    <edge function="internal" id=":917573761_0">
        <lane disallow="tram rail_urban rail rail_electric rail_fast ship" id=":917573761_0_0" index="0" length="14.42" shape="573926.10,-3862267.88 573927.24,-3862282.27" speed="12.50"/>
        <lane disallow="tram rail_urban rail rail_electric rail_fast ship" id=":917573761_0_1" index="1" length="14.42" shape="573929.29,-3862267.64 573930.43,-3862282.01" speed="12.50"/>
    </edge>
    <edge function="internal" id=":917573761_2">
        <lane disallow="tram rail_urban rail rail_electric rail_fast ship" id=":917573761_2_0" index="0" length="11.73" shape="573929.29,-3862267.64 573929.93,-3862271.45 573931.19,-3862274.11 573933.06,-3862275.62 573935.56,-3862275.98" speed="7.32"/>
        <lane disallow="tram rail_urban rail rail_electric rail_fast ship" id=":917573761_2_1" index="1" length="9.03" shape="573929.29,-3862267.64 573929.82,-3862270.06 573931.01,-3862271.72 573932.83,-3862272.63 573935.30,-3862272.79" speed="6.50"/>
    </edge>
    <edge function="internal" id=":917576099_0">
        <lane disallow="tram rail_urban rail rail_electric rail_fast ship" id=":917576099_0_0" index="0" length="14.35" shape="574238.42,-3862257.44 574237.13,-3862243.19" speed="12.50"/>
        <lane disallow="tram rail_urban rail rail_electric rail_fast ship" id=":917576099_0_1" index="1" length="14.35" shape="574235.24,-3862257.77 574233.94,-3862243.43" speed="12.50"/>
    </edge>
    <edge function="internal" id=":917576099_2">
        <lane disallow="tram rail_urban rail rail_electric rail_fast ship" id=":917576099_2_0" index="0" length="14.60" shape="574228.53,-3862252.23 574232.56,-3862251.76 574235.34,-3862250.10 574236.86,-3862247.24 574237.13,-3862243.19" speed="7.82"/>
        <lane disallow="tram rail_urban rail rail_electric rail_fast ship" id=":917576099_2_1" index="1" length="9.04" shape="574228.61,-3862249.04 574231.11,-3862248.74 574232.83,-3862247.71 574233.78,-3862245.94 574233.94,-3862243.43" speed="6.29"/>
    </edge>
    <edge function="internal" id=":917583405_0">
        <lane disallow="tram rail_urban rail rail_electric rail_fast ship" id=":917583405_0_0" index="0" length="17.60" shape="574263.86,-3862569.79 574262.61,-3862552.23" speed="12.50"/>
        <lane disallow="tram rail_urban rail rail_electric rail_fast ship" id=":917583405_0_1" index="1" length="17.60" shape="574260.66,-3862570.02 574259.42,-3862552.46" speed="12.50"/>
    </edge>
    <edge function="internal" id=":917583405_2">
        <lane disallow="tram rail_urban rail rail_electric rail_fast ship" id=":917583405_2_0" index="0" length="14.58" shape="574260.66,-3862570.02 574259.94,-3862564.80 574258.62,-3862561.14 574256.71,-3862559.03 574254.20,-3862558.46" speed="8.09"/>
        <lane disallow="tram rail_urban rail rail_electric rail_fast ship" id=":917583405_2_1" index="1" length="11.73" shape="574260.66,-3862570.02 574260.04,-3862566.20 574258.80,-3862563.53 574256.93,-3862562.02 574254.44,-3862561.65" speed="7.32"/>
        <lane disallow="tram rail_urban rail rail_electric rail_fast ship" id=":917583405_2_2" index="2" length="9.03" shape="574260.66,-3862570.02 574260.14,-3862567.60 574258.97,-3862565.93 574257.15,-3862565.01 574254.68,-3862564.84" speed="6.50"/>
    </edge>
    <edge function="internal" id=":917585662_0">
        <lane disallow="tram rail_urban rail rail_electric rail_fast ship" id=":917585662_0_0" index="0" length="9.03" shape="574142.12,-3862466.19 574144.59,-3862466.34 574146.42,-3862467.24 574147.59,-3862468.91 574148.11,-3862471.33" speed="6.48"/>
    </edge>
    <edge function="internal" id=":917585662_1">
        <lane disallow="tram rail_urban rail rail_electric rail_fast ship" id=":917585662_1_0" index="0" length="14.43" shape="574142.12,-3862466.19 574156.49,-3862465.08" speed="12.50"/>
        <lane disallow="tram rail_urban rail rail_electric rail_fast ship" id=":917585662_1_1" index="1" length="14.43" shape="574141.86,-3862463.00 574156.26,-3862461.89" speed="12.50"/>
    </edge>
    <edge function="internal" id=":917585662_3">
        <lane disallow="tram rail_urban rail rail_electric rail_fast ship" id=":917585662_3_0" index="0" length="14.44" shape="574147.01,-3862456.95 574148.11,-3862471.33" speed="12.50"/>
        <lane disallow="tram rail_urban rail rail_electric rail_fast ship" id=":917585662_3_1" index="1" length="14.44" shape="574150.20,-3862456.69 574151.30,-3862471.11" speed="12.50"/>
    </edge>
    <edge function="internal" id=":917585662_5">
        <lane disallow="tram rail_urban rail rail_electric rail_fast ship" id=":917585662_5_0" index="0" length="9.09" shape="574150.20,-3862456.69 574150.75,-3862459.11 574151.95,-3862460.79 574153.78,-3862461.71 574156.26,-3862461.89" speed="6.55"/>
    </edge>
    <edge function="internal" id=":917591119_0">
        <lane disallow="tram rail_urban rail rail_electric rail_fast ship" id=":917591119_0_0" index="0" length="16.80" shape="573960.07,-3862581.21 573956.31,-3862582.24 573953.74,-3862584.69 573952.37,-3862588.54 573952.20,-3862593.80" speed="8.67"/>
        <lane disallow="tram rail_urban rail rail_electric rail_fast ship" id=":917591119_0_1" index="1" length="11.69" shape="573960.31,-3862584.40 573957.92,-3862585.13 573956.31,-3862586.90 573955.47,-3862589.72 573955.39,-3862593.57" speed="7.33"/>
    </edge>
    <edge function="internal" id=":917591119_2">
        <lane disallow="tram rail_urban rail rail_electric rail_fast ship" id=":917591119_2_0" index="0" length="17.53" shape="573950.84,-3862576.35 573952.20,-3862593.80" speed="12.50"/>
        <lane disallow="tram rail_urban rail rail_electric rail_fast ship" id=":917591119_2_1" index="1" length="17.53" shape="573954.03,-3862576.08 573955.39,-3862593.57" speed="12.50"/>
    </edge>
    <edge function="internal" id=":917625155_0">
        <lane disallow="tram rail_urban rail rail_electric rail_fast ship" id=":917625155_0_0" index="0" length="9.05" shape="574062.60,-3862573.40 574060.13,-3862573.23 574058.30,-3862572.32 574057.11,-3862570.65 574056.56,-3862568.24" speed="6.53"/>
    </edge>
    <edge function="internal" id=":917625155_1">
        <lane disallow="tram rail_urban rail rail_electric rail_fast ship" id=":917625155_1_0" index="0" length="14.37" shape="574062.60,-3862573.40 574048.26,-3862574.49" speed="12.50"/>
        <lane disallow="tram rail_urban rail rail_electric rail_fast ship" id=":917625155_1_1" index="1" length="14.37" shape="574062.84,-3862576.59 574048.51,-3862577.68" speed="12.50"/>
        <lane disallow="tram rail_urban rail rail_electric rail_fast ship" id=":917625155_1_2" index="2" length="14.37" shape="574063.08,-3862579.78 574048.75,-3862580.87" speed="12.50"/>
    </edge>
    <edge function="internal" id=":917625155_4">
        <lane disallow="tram rail_urban rail rail_electric rail_fast ship" id=":917625155_4_0" index="0" length="17.57" shape="574057.94,-3862585.76 574056.56,-3862568.24" speed="12.50"/>
        <lane disallow="tram rail_urban rail rail_electric rail_fast ship" id=":917625155_4_1" index="1" length="17.57" shape="574054.75,-3862586.00 574053.37,-3862568.50" speed="12.50"/>
    </edge>
    <edge function="internal" id=":917625155_6">
        <lane disallow="tram rail_urban rail rail_electric rail_fast ship" id=":917625155_6_0" index="0" length="11.70" shape="574054.75,-3862586.00 574054.12,-3862582.20 574052.86,-3862579.54 574050.99,-3862578.04 574048.51,-3862577.68" speed="7.32"/>
        <lane disallow="tram rail_urban rail rail_electric rail_fast ship" id=":917625155_6_1" index="1" length="9.01" shape="574054.75,-3862586.00 574054.22,-3862583.59 574053.04,-3862581.94 574051.22,-3862581.03 574048.75,-3862580.87" speed="6.50"/>
    </edge>
    <edge function="internal" id=":917679953_0">
        <lane disallow="tram rail_urban rail rail_electric rail_fast ship" id=":917679953_0_0" index="0" length="9.05" shape="574033.15,-3862273.81 574033.31,-3862271.35 574034.22,-3862269.52 574035.89,-3862268.32 574038.31,-3862267.74" speed="6.55"/>
    </edge>
    <edge function="internal" id=":917679953_1">
        <lane disallow="tram rail_urban rail rail_electric rail_fast ship" id=":917679953_1_0" index="0" length="14.34" shape="574033.15,-3862273.81 574032.04,-3862259.52" speed="12.50"/>
        <lane disallow="tram rail_urban rail rail_electric rail_fast ship" id=":917679953_1_1" index="1" length="14.34" shape="574029.96,-3862274.06 574028.85,-3862259.77" speed="12.50"/>
    </edge>
    <edge function="internal" id=":917679953_3">
        <lane disallow="tram rail_urban rail rail_electric rail_fast ship" id=":917679953_3_0" index="0" length="14.34" shape="574024.00,-3862268.97 574038.31,-3862267.74" speed="12.50"/>
        <lane disallow="tram rail_urban rail rail_electric rail_fast ship" id=":917679953_3_1" index="1" length="14.34" shape="574023.75,-3862265.78 574038.01,-3862264.56" speed="12.50"/>
    </edge>
    <edge function="internal" id=":917679953_5">
        <lane disallow="tram rail_urban rail rail_electric rail_fast ship" id=":917679953_5_0" index="0" length="8.99" shape="574023.75,-3862265.78 574026.14,-3862265.24 574027.79,-3862264.06 574028.69,-3862262.23 574028.85,-3862259.77" speed="6.50"/>
    </edge>
    <edge function="internal" id=":917705960_0">